/*---------------------------------------------------------------------------*\
| =========                 |                                                 |
| \\      /  F ield         | OpenFOAM: The Open Source CFD Toolbox           |
|  \\    /   O peration     | Version:  v2012                                 |
|   \\  /    A nd           | Website:  www.openfoam.com                      |
|    \\/     M anipulation  |                                                 |
\*---------------------------------------------------------------------------*/
Build  : _7bdb509494-20201222 OPENFOAM=2012
Arch   : "LSB;label=32;scalar=64"
Exec   : interFoam
Date   : May 19 2025
Time   : 15:14:40
Host   : joseph-pc
PID    : 301805
I/O    : uncollated
Case   : /home/joseph/OpenFOAM/joseph-2012/run/tutorial_cases/floatingBox_v1
nProcs : 1
trapFpe: Floating point exception trapping enabled (FOAM_SIGFPE).
fileModificationChecking : Monitoring run-time modified files using timeStampMaster (fileModificationSkew 5, maxFileModificationPolls 20)
allowSystemOperations : Allowing user-supplied system call operations

// * * * * * * * * * * * * * * * * * * * * * * * * * * * * * * * * * * * * * //
Create time

Create mesh for time = 0

Selecting dynamicFvMesh dynamicMotionSolverFvMesh
Selecting motion solver: rigidBodyMotion
Applying solid body motion to entire mesh
Selecting rigidBodySolver Newmark

PIMPLE: no residual control data found. Calculations will employ 3 corrector loops

Reading field p_rgh

Reading field U

Reading/calculating face flux field phi

Reading transportProperties

Selecting incompressible transport model Newtonian
Selecting incompressible transport model Newtonian
Selecting turbulence model type RAS
Selecting RAS turbulence model kEpsilon
RAS
{
    RASModel        kEpsilon;
    turbulence      on;
    printCoeffs     on;
    Cmu             0.09;
    C1              1.44;
    C2              1.92;
    C3              0;
    sigmak          1;
    sigmaEps        1.3;
}


Reading g

Reading hRef
Calculating field g.h

No MRF models present

No finite volume options present
GAMGPCG:  Solving for pcorr, Initial residual = 0, Final residual = 0, No Iterations 0
time step continuity errors : sum local = 0, global = 0, cumulative = 0
Constructing face velocity Uf

Courant Number mean: 0 max: 0

Starting time loop

Courant Number mean: 0 max: 0
Interface Courant Number mean: 0 max: 0
deltaT = 0.000119976004799
Time = 0.000119976

PIMPLE: iteration 1
forces forces:
    rho: rho
    Not including porosity effects

Rigid-body motion of the floatingObject
    Centre of rotation: (0.5 0.449999965953 0)
    Orientation: (1 0 0 0 1 0 0 0 1)
    Linear velocity: (-1.55551901371e-19 -0.000567571565687 0)
    Angular velocity: (0 0 0)
GAMGPCG:  Solving for pcorr, Initial residual = 1, Final residual = 7.76010224104e-06, No Iterations 7
time step continuity errors : sum local = 5.3920808324e-14, global = -3.08569401058e-15, cumulative = -3.08569401058e-15
smoothSolver:  Solving for alpha.water, Initial residual = 7.14908984535e-09, Final residual = 7.14908984535e-09, No Iterations 0
Phase-1 volume fraction = 0.530612237775  Min(alpha.water) = 0  Max(alpha.water) = 1
MULES: Correcting alpha.water
MULES: Correcting alpha.water
MULES: Correcting alpha.water
Phase-1 volume fraction = 0.530612237775  Min(alpha.water) = 0  Max(alpha.water) = 1
GAMGPCG:  Solving for p_rgh, Initial residual = 1, Final residual = 8.58825295684e-10, No Iterations 7
time step continuity errors : sum local = 8.15334075993e-13, global = -3.4933912969e-14, cumulative = -3.80196069796e-14
PIMPLE: iteration 2
forces forces:
    rho: rho
    Not including porosity effects

Rigid-body motion of the floatingObject
    Centre of rotation: (0.5 0.449999975311 0)
    Orientation: (1 0 0 0 1 0 0 0 1)
    Linear velocity: (-3.27479527598e-13 -0.000411571193058 0)
    Angular velocity: (0 0 0)
GAMGPCG:  Solving for pcorr, Initial residual = 1, Final residual = 6.59247377182e-06, No Iterations 7
time step continuity errors : sum local = 1.70285441955e-14, global = -1.43143397491e-14, cumulative = -5.23339467287e-14
smoothSolver:  Solving for alpha.water, Initial residual = 5.18410413547e-09, Final residual = 5.18410413547e-09, No Iterations 0
Phase-1 volume fraction = 0.530612239733  Min(alpha.water) = 0  Max(alpha.water) = 1
Applying the previous iteration compression flux
MULES: Correcting alpha.water
MULES: Correcting alpha.water
MULES: Correcting alpha.water
MULES: Correcting alpha.water
Phase-1 volume fraction = 0.530612239733  Min(alpha.water) = 0  Max(alpha.water) = 1
GAMGPCG:  Solving for p_rgh, Initial residual = 1.76163565113e-07, Final residual = 6.9785071846e-09, No Iterations 2
time step continuity errors : sum local = 1.4626326886e-10, global = 1.69187666823e-12, cumulative = 1.6395427215e-12
PIMPLE: iteration 3
forces forces:
    rho: rho
    Not including porosity effects

Rigid-body motion of the floatingObject
    Centre of rotation: (0.5 0.449999981273 0)
    Orientation: (1 0 0 0 1 0 0 0 1)
    Linear velocity: (-3.45354101804e-10 -0.000312179676314 0)
    Angular velocity: (0 0 0)
GAMGPCG:  Solving for pcorr, Initial residual = 1, Final residual = 6.14531229663e-06, No Iterations 7
time step continuity errors : sum local = 1.13653477524e-14, global = -1.00316251181e-14, cumulative = 1.62951109638e-12
smoothSolver:  Solving for alpha.water, Initial residual = 3.93217920886e-09, Final residual = 3.93217920886e-09, No Iterations 0
Phase-1 volume fraction = 0.53061224098  Min(alpha.water) = 0  Max(alpha.water) = 1
Applying the previous iteration compression flux
MULES: Correcting alpha.water
MULES: Correcting alpha.water
MULES: Correcting alpha.water
MULES: Correcting alpha.water
Phase-1 volume fraction = 0.53061224098  Min(alpha.water) = 0  Max(alpha.water) = 1
GAMGPCG:  Solving for p_rgh, Initial residual = 8.77069055526e-08, Final residual = 3.54139402592e-09, No Iterations 2
time step continuity errors : sum local = 7.40112826711e-11, global = 2.06313187867e-12, cumulative = 3.69264297505e-12
smoothSolver:  Solving for epsilon, Initial residual = 0.0020335525782, Final residual = 1.28978213494e-07, No Iterations 2
smoothSolver:  Solving for k, Initial residual = 1, Final residual = 9.91115253588e-08, No Iterations 4
ExecutionTime = 0.26 s  ClockTime = 0 s

Courant Number mean: 2.77660369279e-07 max: 5.39610317031e-06
Interface Courant Number mean: 0 max: 0
deltaT = 0.000144005780976
Time = 0.000263982

PIMPLE: iteration 1
forces forces:
    rho: rho
    Not including porosity effects

Rigid-body motion of the floatingObject
    Centre of rotation: (0.5 0.449999887917 0)
    Orientation: (1 0 0 0 1 0 0 0 1)
    Linear velocity: (-1.46854242321e-09 -0.000984373997312 0)
    Angular velocity: (0 0 0)
GAMGPCG:  Solving for pcorr, Initial residual = 1, Final residual = 8.93346019521e-06, No Iterations 7
time step continuity errors : sum local = 1.98426202517e-13, global = 1.75201139048e-13, cumulative = 3.8678441141e-12
smoothSolver:  Solving for alpha.water, Initial residual = 3.44846405989e-08, Final residual = 3.43109841028e-17, No Iterations 1
Phase-1 volume fraction = 0.53061224098  Min(alpha.water) = 0  Max(alpha.water) = 1
Applying the previous iteration compression flux
MULES: Correcting alpha.water
MULES: Correcting alpha.water
MULES: Correcting alpha.water
MULES: Correcting alpha.water
Phase-1 volume fraction = 0.53061224098  Min(alpha.water) = 0  Max(alpha.water) = 1
GAMGPCG:  Solving for p_rgh, Initial residual = 2.79655004503e-06, Final residual = 5.8158876311e-09, No Iterations 3
time step continuity errors : sum local = 1.21550346288e-10, global = 4.33335357406e-12, cumulative = 8.20119768816e-12
PIMPLE: iteration 2
forces forces:
    rho: rho
    Not including porosity effects

Rigid-body motion of the floatingObject
    Centre of rotation: (0.5 0.449999899168 0)
    Orientation: (1 0 0 0 1 0 0 0 1)
    Linear velocity: (-4.36692289881e-10 -0.000828123487628 0)
    Angular velocity: (0 0 0)
GAMGPCG:  Solving for pcorr, Initial residual = 1, Final residual = 5.32976917076e-06, No Iterations 7
time step continuity errors : sum local = 3.29705743184e-14, global = -2.92351713111e-14, cumulative = 8.17196251685e-12
smoothSolver:  Solving for alpha.water, Initial residual = 2.36248595877e-09, Final residual = 2.36248595877e-09, No Iterations 0
Phase-1 volume fraction = 0.530612243334  Min(alpha.water) = 0  Max(alpha.water) = 1
Applying the previous iteration compression flux
MULES: Correcting alpha.water
MULES: Correcting alpha.water
MULES: Correcting alpha.water
MULES: Correcting alpha.water
Phase-1 volume fraction = 0.530612243334  Min(alpha.water) = -4.47609840779e-81  Max(alpha.water) = 1
GAMGPCG:  Solving for p_rgh, Initial residual = 4.2520759998e-07, Final residual = 1.20246979515e-09, No Iterations 3
time step continuity errors : sum local = 2.57287219872e-11, global = -9.67924721967e-13, cumulative = 7.20403779489e-12
PIMPLE: iteration 3
forces forces:
    rho: rho
    Not including porosity effects

Rigid-body motion of the floatingObject
    Centre of rotation: (0.5 0.449999905408 0)
    Orientation: (1 0 0 0 1 0 0 0 1)
    Linear velocity: (-2.53720078297e-11 -0.000741464166945 0)
    Angular velocity: (0 0 0)
GAMGPCG:  Solving for pcorr, Initial residual = 1, Final residual = 4.41306605084e-06, No Iterations 7
time step continuity errors : sum local = 1.86451425295e-14, global = -1.65689249542e-14, cumulative = 7.18746886993e-12
smoothSolver:  Solving for alpha.water, Initial residual = 3.67284262025e-09, Final residual = 3.67284262025e-09, No Iterations 0
Phase-1 volume fraction = 0.530612244639  Min(alpha.water) = -4.47609840779e-81  Max(alpha.water) = 1
Applying the previous iteration compression flux
MULES: Correcting alpha.water
MULES: Correcting alpha.water
MULES: Correcting alpha.water
MULES: Correcting alpha.water
Phase-1 volume fraction = 0.530612244639  Min(alpha.water) = -4.47609840769e-81  Max(alpha.water) = 1
GAMGPCG:  Solving for p_rgh, Initial residual = 1.3547127683e-07, Final residual = 5.5899773863e-09, No Iterations 2
time step continuity errors : sum local = 1.18973296302e-10, global = 3.44203684073e-12, cumulative = 1.06295057107e-11
smoothSolver:  Solving for epsilon, Initial residual = 0.00152545894908, Final residual = 6.28248285339e-08, No Iterations 2
smoothSolver:  Solving for k, Initial residual = 0.628045865416, Final residual = 2.08089613595e-08, No Iterations 4
ExecutionTime = 0.44 s  ClockTime = 0 s

Courant Number mean: 1.52098102056e-06 max: 2.96923347321e-05
Interface Courant Number mean: 0 max: 0
deltaT = 0.000172782022677
Time = 0.000436764

PIMPLE: iteration 1
forces forces:
    rho: rho
    Not including porosity effects

Rigid-body motion of the floatingObject
    Centre of rotation: (0.5 0.449999771201 0)
    Orientation: (1 0 0 0 1 0 0 0 1)
    Linear velocity: (1.25115280897e-09 -0.000812013782031 0)
    Angular velocity: (0 0 0)
GAMGPCG:  Solving for pcorr, Initial residual = 1, Final residual = 5.09906772447e-06, No Iterations 7
time step continuity errors : sum local = 3.08785120071e-14, global = 2.6535656067e-14, cumulative = 1.06560413667e-11
smoothSolver:  Solving for alpha.water, Initial residual = 2.82075702049e-08, Final residual = 3.45695422147e-17, No Iterations 1
Phase-1 volume fraction = 0.530612244639  Min(alpha.water) = 0  Max(alpha.water) = 1.00000000064
Applying the previous iteration compression flux
MULES: Correcting alpha.water
MULES: Correcting alpha.water
MULES: Correcting alpha.water
MULES: Correcting alpha.water
Phase-1 volume fraction = 0.530612244639  Min(alpha.water) = 0  Max(alpha.water) = 1.00000000064
GAMGPCG:  Solving for p_rgh, Initial residual = 3.27762983697e-06, Final residual = 6.71764159149e-09, No Iterations 3
time step continuity errors : sum local = 2.01145854953e-10, global = -7.03765368759e-12, cumulative = 3.61838767914e-12
PIMPLE: iteration 2
forces forces:
    rho: rho
    Not including porosity effects

Rigid-body motion of the floatingObject
    Centre of rotation: (0.5 0.449999762344 0)
    Orientation: (1 0 0 0 1 0 0 0 1)
    Linear velocity: (1.61922643243e-09 -0.000914542173408 0)
    Angular velocity: (0 0 0)
GAMGPCG:  Solving for pcorr, Initial residual = 1, Final residual = 4.28785019293e-06, No Iterations 7
time step continuity errors : sum local = 2.44050287894e-14, global = 2.06701233841e-14, cumulative = 3.63905780252e-12
smoothSolver:  Solving for alpha.water, Initial residual = 1.85985414401e-09, Final residual = 1.85985414401e-09, No Iterations 0
Phase-1 volume fraction = 0.530612242786  Min(alpha.water) = 0  Max(alpha.water) = 1.00000000064
Applying the previous iteration compression flux
MULES: Correcting alpha.water
MULES: Correcting alpha.water
MULES: Correcting alpha.water
MULES: Correcting alpha.water
Phase-1 volume fraction = 0.530612242786  Min(alpha.water) = -2.9960299986e-156  Max(alpha.water) = 1.00000000064
GAMGPCG:  Solving for p_rgh, Initial residual = 1.72284135829e-07, Final residual = 6.04852985534e-09, No Iterations 2
time step continuity errors : sum local = 1.7595158662e-10, global = -5.07567672045e-12, cumulative = -1.43661891793e-12
PIMPLE: iteration 3
forces forces:
    rho: rho
    Not including porosity effects

Rigid-body motion of the floatingObject
    Centre of rotation: (0.5 0.449999757211 0)
    Orientation: (1 0 0 0 1 0 0 0 1)
    Linear velocity: (2.98822279714e-09 -0.000973950879159 0)
    Angular velocity: (0 0 0)
GAMGPCG:  Solving for pcorr, Initial residual = 1, Final residual = 2.87295164382e-06, No Iterations 7
time step continuity errors : sum local = 1.37467206727e-14, global = 1.11026930598e-14, cumulative = -1.42551622487e-12
smoothSolver:  Solving for alpha.water, Initial residual = 2.93752619257e-09, Final residual = 2.93752619257e-09, No Iterations 0
Phase-1 volume fraction = 0.530612241712  Min(alpha.water) = -2.9960299986e-156  Max(alpha.water) = 1.00000000064
Applying the previous iteration compression flux
MULES: Correcting alpha.water
MULES: Correcting alpha.water
MULES: Correcting alpha.water
MULES: Correcting alpha.water
Phase-1 volume fraction = 0.530612241712  Min(alpha.water) = -1.7446507357e-32  Max(alpha.water) = 1.00000000064
GAMGPCG:  Solving for p_rgh, Initial residual = 7.58026057643e-08, Final residual = 3.22539562671e-09, No Iterations 2
time step continuity errors : sum local = 9.40616275883e-11, global = -2.58379043515e-12, cumulative = -4.00930666002e-12
smoothSolver:  Solving for epsilon, Initial residual = 0.00117613050677, Final residual = 7.89543029221e-08, No Iterations 2
smoothSolver:  Solving for k, Initial residual = 0.479171639364, Final residual = 3.23220532691e-08, No Iterations 4
ExecutionTime = 0.6 s  ClockTime = 0 s

Courant Number mean: 2.38639057532e-06 max: 4.65945763978e-05
Interface Courant Number mean: 0 max: 0
deltaT = 0.000207230774861
Time = 0.000643995

PIMPLE: iteration 1
forces forces:
    rho: rho
    Not including porosity effects

Rigid-body motion of the floatingObject
    Centre of rotation: (0.500000000001 0.449999509576 0)
    Orientation: (1 0 0 0 1 0 0 0 1)
    Linear velocity: (8.71636560351e-09 -0.00141599141428 0)
    Angular velocity: (0 0 0)
GAMGPCG:  Solving for pcorr, Initial residual = 1, Final residual = 7.38168177383e-06, No Iterations 7
time step continuity errors : sum local = 1.52925945525e-13, global = 1.33829648583e-13, cumulative = -3.87547701144e-12
smoothSolver:  Solving for alpha.water, Initial residual = 5.20155880197e-08, Final residual = 3.83571200379e-17, No Iterations 1
Phase-1 volume fraction = 0.530612241712  Min(alpha.water) = 0  Max(alpha.water) = 1.00000000037
Applying the previous iteration compression flux
MULES: Correcting alpha.water
MULES: Correcting alpha.water
MULES: Correcting alpha.water
MULES: Correcting alpha.water
Phase-1 volume fraction = 0.530612241712  Min(alpha.water) = 0  Max(alpha.water) = 1.00000000037
GAMGPCG:  Solving for p_rgh, Initial residual = 4.17735298659e-06, Final residual = 4.88413273543e-09, No Iterations 3
time step continuity errors : sum local = 2.01033585356e-10, global = 5.94024429096e-12, cumulative = 2.06476727953e-12
PIMPLE: iteration 2
forces forces:
    rho: rho
    Not including porosity effects

Rigid-body motion of the floatingObject
    Centre of rotation: (0.500000000001 0.449999516899 0)
    Orientation: (1 0 0 0 1 0 0 0 1)
    Linear velocity: (6.43801629776e-09 -0.00134532376081 0)
    Angular velocity: (0 0 0)
GAMGPCG:  Solving for pcorr, Initial residual = 1, Final residual = 2.96826183264e-06, No Iterations 7
time step continuity errors : sum local = 2.33595197182e-14, global = -2.08083257789e-14, cumulative = 2.04395895375e-12
smoothSolver:  Solving for alpha.water, Initial residual = 1.53818424952e-09, Final residual = 1.53818424952e-09, No Iterations 0
Phase-1 volume fraction = 0.530612243244  Min(alpha.water) = 0  Max(alpha.water) = 1.00000000037
Applying the previous iteration compression flux
MULES: Correcting alpha.water
MULES: Correcting alpha.water
MULES: Correcting alpha.water
MULES: Correcting alpha.water
Phase-1 volume fraction = 0.530612243244  Min(alpha.water) = 0  Max(alpha.water) = 1.00000000037
GAMGPCG:  Solving for p_rgh, Initial residual = 1.81080554531e-07, Final residual = 4.97933714562e-09, No Iterations 2
time step continuity errors : sum local = 2.08439892615e-10, global = 5.69462440312e-12, cumulative = 7.73858335687e-12
PIMPLE: iteration 3
forces forces:
    rho: rho
    Not including porosity effects

Rigid-body motion of the floatingObject
    Centre of rotation: (0.500000000001 0.449999520867 0)
    Orientation: (1 0 0 0 1 0 0 0 1)
    Linear velocity: (4.11108173517e-09 -0.00130702363652 0)
    Angular velocity: (0 0 0)
GAMGPCG:  Solving for pcorr, Initial residual = 1, Final residual = 9.6306693505e-06, No Iterations 6
time step continuity errors : sum local = 6.3929018901e-14, global = -5.04429517553e-14, cumulative = 7.68814040512e-12
smoothSolver:  Solving for alpha.water, Initial residual = 2.37220702914e-09, Final residual = 2.37220702914e-09, No Iterations 0
Phase-1 volume fraction = 0.530612244074  Min(alpha.water) = 0  Max(alpha.water) = 1.00000000037
Applying the previous iteration compression flux
MULES: Correcting alpha.water
MULES: Correcting alpha.water
MULES: Correcting alpha.water
MULES: Correcting alpha.water
Phase-1 volume fraction = 0.530612244074  Min(alpha.water) = -5.50663886792e-74  Max(alpha.water) = 1.00000000037
GAMGPCG:  Solving for p_rgh, Initial residual = 4.9890754455e-08, Final residual = 1.77790760793e-09, No Iterations 2
time step continuity errors : sum local = 7.42829669245e-11, global = 1.90734644502e-12, cumulative = 9.59548685014e-12
smoothSolver:  Solving for epsilon, Initial residual = 0.00128556364075, Final residual = 1.26787882696e-07, No Iterations 2
smoothSolver:  Solving for k, Initial residual = 0.358787423248, Final residual = 4.92139309071e-08, No Iterations 4
ExecutionTime = 0.77 s  ClockTime = 0 s

Courant Number mean: 3.83259895727e-06 max: 7.44496964597e-05
Interface Courant Number mean: 0 max: 0
deltaT = 0.000248573572839
Time = 0.000892568

PIMPLE: iteration 1
forces forces:
    rho: rho
    Not including porosity effects

Rigid-body motion of the floatingObject
    Centre of rotation: (0.500000000001 0.449999159712 0)
    Orientation: (1 0 0 0 1 0 0 0 1)
    Linear velocity: (-6.89100010591e-10 -0.00159879561934 0)
    Angular velocity: (0 0 0)
GAMGPCG:  Solving for pcorr, Initial residual = 1, Final residual = 6.52005703441e-06, No Iterations 7
time step continuity errors : sum local = 1.43249507737e-13, global = 1.24608281831e-13, cumulative = 9.72009513197e-12
smoothSolver:  Solving for alpha.water, Initial residual = 7.58501043116e-08, Final residual = 2.8175240724e-17, No Iterations 1
Phase-1 volume fraction = 0.530612244074  Min(alpha.water) = 0  Max(alpha.water) = 1.00000000079
Applying the previous iteration compression flux
MULES: Correcting alpha.water
MULES: Correcting alpha.water
MULES: Correcting alpha.water
MULES: Correcting alpha.water
Phase-1 volume fraction = 0.530612244074  Min(alpha.water) = 0  Max(alpha.water) = 1.00000000079
GAMGPCG:  Solving for p_rgh, Initial residual = 5.32150237129e-06, Final residual = 3.27438121679e-09, No Iterations 3
time step continuity errors : sum local = 1.92809238382e-10, global = -3.65256059112e-12, cumulative = 6.06753454085e-12
PIMPLE: iteration 2
forces forces:
    rho: rho
    Not including porosity effects

Rigid-body motion of the floatingObject
    Centre of rotation: (0.500000000002 0.449999154812 0)
    Orientation: (1 0 0 0 1 0 0 0 1)
    Linear velocity: (1.6741691359e-09 -0.00163822526467 0)
    Angular velocity: (0 0 0)
GAMGPCG:  Solving for pcorr, Initial residual = 1, Final residual = 6.24781547728e-06, No Iterations 6
time step continuity errors : sum local = 5.83852521471e-14, global = 4.1055245455e-14, cumulative = 6.10858978631e-12
smoothSolver:  Solving for alpha.water, Initial residual = 1.029025816e-09, Final residual = 1.029025816e-09, No Iterations 0
Phase-1 volume fraction = 0.530612243049  Min(alpha.water) = 0  Max(alpha.water) = 1.00000000079
Applying the previous iteration compression flux
MULES: Correcting alpha.water
MULES: Correcting alpha.water
MULES: Correcting alpha.water
MULES: Correcting alpha.water
Phase-1 volume fraction = 0.530612243049  Min(alpha.water) = -8.54979550445e-140  Max(alpha.water) = 1.00000000079
GAMGPCG:  Solving for p_rgh, Initial residual = 1.26509147757e-07, Final residual = 1.32281033707e-09, No Iterations 2
time step continuity errors : sum local = 7.72516626299e-11, global = -1.2399712027e-12, cumulative = 4.86861858361e-12
PIMPLE: iteration 3
forces forces:
    rho: rho
    Not including porosity effects

Rigid-body motion of the floatingObject
    Centre of rotation: (0.500000000002 0.449999151733 0)
    Orientation: (1 0 0 0 1 0 0 0 1)
    Linear velocity: (3.57038099344e-09 -0.00166299247864 0)
    Angular velocity: (0 0 0)
GAMGPCG:  Solving for pcorr, Initial residual = 1, Final residual = 4.21913393221e-06, No Iterations 6
time step continuity errors : sum local = 3.71961734017e-14, global = 2.25794021292e-14, cumulative = 4.89119798574e-12
smoothSolver:  Solving for alpha.water, Initial residual = 1.67539462825e-09, Final residual = 1.67539462825e-09, No Iterations 0
Phase-1 volume fraction = 0.530612242405  Min(alpha.water) = -8.54979550445e-140  Max(alpha.water) = 1.00000000079
Applying the previous iteration compression flux
MULES: Correcting alpha.water
MULES: Correcting alpha.water
MULES: Correcting alpha.water
MULES: Correcting alpha.water
Phase-1 volume fraction = 0.530612242405  Min(alpha.water) = -2.9920888113e-39  Max(alpha.water) = 1.00000000079
GAMGPCG:  Solving for p_rgh, Initial residual = 1.9949428766e-08, Final residual = 9.81379727449e-09, No Iterations 1
time step continuity errors : sum local = 5.73342701778e-10, global = -2.05780895002e-11, cumulative = -1.56868915144e-11
smoothSolver:  Solving for epsilon, Initial residual = 0.00143305244179, Final residual = 2.04958697454e-07, No Iterations 2
smoothSolver:  Solving for k, Initial residual = 0.28851450788, Final residual = 8.0306736029e-08, No Iterations 4
ExecutionTime = 0.93 s  ClockTime = 1 s

Courant Number mean: 5.92514818143e-06 max: 0.000114413040139
Interface Courant Number mean: 0 max: 0
deltaT = 0.00029851189182
Time = 0.00119108

PIMPLE: iteration 1
forces forces:
    rho: rho
    Not including porosity effects

Rigid-body motion of the floatingObject
    Centre of rotation: (0.500000000004 0.449998582204 0)
    Orientation: (1 0 0 0 1 0 0 0 1)
    Linear velocity: (1.02121931022e-08 -0.00215279611507 0)
    Angular velocity: (0 0 0)
GAMGPCG:  Solving for pcorr, Initial residual = 1, Final residual = 6.39280952846e-06, No Iterations 7
time step continuity errors : sum local = 2.40751485498e-13, global = 1.96364048762e-13, cumulative = -1.54905274657e-11
smoothSolver:  Solving for alpha.water, Initial residual = 1.19686728583e-07, Final residual = 4.518129805e-17, No Iterations 1
Phase-1 volume fraction = 0.530612242405  Min(alpha.water) = 0  Max(alpha.water) = 1.00000000224
Applying the previous iteration compression flux
MULES: Correcting alpha.water
MULES: Correcting alpha.water
MULES: Correcting alpha.water
MULES: Correcting alpha.water
Phase-1 volume fraction = 0.530612242405  Min(alpha.water) = 0  Max(alpha.water) = 1.00000000224
GAMGPCG:  Solving for p_rgh, Initial residual = 7.87299194454e-06, Final residual = 2.58651274148e-09, No Iterations 3
time step continuity errors : sum local = 2.1365357278e-10, global = 3.68885024866e-12, cumulative = -1.1801677217e-11
PIMPLE: iteration 2
forces forces:
    rho: rho
    Not including porosity effects

Rigid-body motion of the floatingObject
    Centre of rotation: (0.500000000003 0.44999858631 0)
    Orientation: (1 0 0 0 1 0 0 0 1)
    Linear velocity: (4.12039687757e-09 -0.00212528484451 0)
    Angular velocity: (0 0 0)
GAMGPCG:  Solving for pcorr, Initial residual = 1, Final residual = 6.12496400526e-06, No Iterations 6
time step continuity errors : sum local = 8.34800795409e-14, global = -6.22345736055e-14, cumulative = -1.18639117906e-11
smoothSolver:  Solving for alpha.water, Initial residual = 8.66426043207e-10, Final residual = 8.66426043207e-10, No Iterations 0
Phase-1 volume fraction = 0.530612243264  Min(alpha.water) = 0  Max(alpha.water) = 1.00000000224
Applying the previous iteration compression flux
MULES: Correcting alpha.water
MULES: Correcting alpha.water
MULES: Correcting alpha.water
MULES: Correcting alpha.water
Phase-1 volume fraction = 0.530612243264  Min(alpha.water) = -1.09787393496e-157  Max(alpha.water) = 1.00000000224
GAMGPCG:  Solving for p_rgh, Initial residual = 1.45186434712e-07, Final residual = 2.89541511387e-09, No Iterations 2
time step continuity errors : sum local = 2.40336921589e-10, global = 5.43048747757e-12, cumulative = -6.43342431306e-12
PIMPLE: iteration 3
forces forces:
    rho: rho
    Not including porosity effects

Rigid-body motion of the floatingObject
    Centre of rotation: (0.500000000002 0.449998588098 0)
    Orientation: (1 0 0 0 1 0 0 0 1)
    Linear velocity: (-1.50797071399e-10 -0.00211331049894 0)
    Angular velocity: (0 0 0)
GAMGPCG:  Solving for pcorr, Initial residual = 1, Final residual = 6.38699781785e-06, No Iterations 6
time step continuity errors : sum local = 8.19270514072e-14, global = -2.16561314669e-14, cumulative = -6.45508044453e-12
smoothSolver:  Solving for alpha.water, Initial residual = 1.24602359754e-09, Final residual = 1.24602359754e-09, No Iterations 0
Phase-1 volume fraction = 0.530612243638  Min(alpha.water) = -1.09787393496e-157  Max(alpha.water) = 1.00000000224
Applying the previous iteration compression flux
MULES: Correcting alpha.water
MULES: Correcting alpha.water
MULES: Correcting alpha.water
MULES: Correcting alpha.water
Phase-1 volume fraction = 0.530612243638  Min(alpha.water) = -1.01348630195e-64  Max(alpha.water) = 1.00000000224
GAMGPCG:  Solving for p_rgh, Initial residual = 1.75782170158e-08, Final residual = 4.95782843684e-09, No Iterations 1
time step continuity errors : sum local = 4.11152949677e-10, global = 9.04024098984e-12, cumulative = 2.58516054532e-12
smoothSolver:  Solving for epsilon, Initial residual = 0.00160263614791, Final residual = 3.32434251554e-07, No Iterations 2
smoothSolver:  Solving for k, Initial residual = 0.248447827012, Final residual = 1.40534479381e-07, No Iterations 4
ExecutionTime = 1.09 s  ClockTime = 1 s

Courant Number mean: 9.00694511425e-06 max: 0.000173003800607
Interface Courant Number mean: 0 max: 0
deltaT = 0.000358214270184
Time = 0.00154929

PIMPLE: iteration 1
forces forces:
    rho: rho
    Not including porosity effects

Rigid-body motion of the floatingObject
    Centre of rotation: (0.499999999999 0.449997740558 0)
    Orientation: (1 0 0 0 1 0 0 0 1)
    Linear velocity: (-1.63913442213e-08 -0.00261871349708 0)
    Angular velocity: (0 0 0)
GAMGPCG:  Solving for pcorr, Initial residual = 1, Final residual = 6.42998300388e-06, No Iterations 7
time step continuity errors : sum local = 3.32696044153e-13, global = 2.8945740315e-13, cumulative = 2.87461794847e-12
smoothSolver:  Solving for alpha.water, Initial residual = 1.78080770564e-07, Final residual = 5.2844415431e-17, No Iterations 1
Phase-1 volume fraction = 0.530612243638  Min(alpha.water) = 0  Max(alpha.water) = 1.00000000094
Applying the previous iteration compression flux
MULES: Correcting alpha.water
MULES: Correcting alpha.water
MULES: Correcting alpha.water
MULES: Correcting alpha.water
Phase-1 volume fraction = 0.530612243638  Min(alpha.water) = 0  Max(alpha.water) = 1.00000000094
GAMGPCG:  Solving for p_rgh, Initial residual = 1.12931755285e-05, Final residual = 1.45276402708e-09, No Iterations 3
time step continuity errors : sum local = 1.69959965521e-10, global = -3.30762539294e-13, cumulative = 2.54385540917e-12
PIMPLE: iteration 2
forces forces:
    rho: rho
    Not including porosity effects

Rigid-body motion of the floatingObject
    Centre of rotation: (0.500000000001 0.449997739066 0)
    Orientation: (1 0 0 0 1 0 0 0 1)
    Linear velocity: (-8.68017215773e-09 -0.00262704371038 0)
    Angular velocity: (0 0 0)
GAMGPCG:  Solving for pcorr, Initial residual = 1, Final residual = 5.43933917903e-06, No Iterations 6
time step continuity errors : sum local = 1.01132067063e-13, global = 4.93298347119e-14, cumulative = 2.59318524388e-12
smoothSolver:  Solving for alpha.water, Initial residual = 3.13352791383e-10, Final residual = 3.13352791383e-10, No Iterations 0
Phase-1 volume fraction = 0.530612243326  Min(alpha.water) = 0  Max(alpha.water) = 1.00000000094
Applying the previous iteration compression flux
MULES: Correcting alpha.water
MULES: Correcting alpha.water
MULES: Correcting alpha.water
MULES: Correcting alpha.water
Phase-1 volume fraction = 0.530612243326  Min(alpha.water) = -6.60348365394e-89  Max(alpha.water) = 1.00000000094
GAMGPCG:  Solving for p_rgh, Initial residual = 1.26483566799e-07, Final residual = 2.04220955374e-09, No Iterations 2
time step continuity errors : sum local = 2.38565993683e-10, global = 3.98380116274e-12, cumulative = 6.57698640662e-12
PIMPLE: iteration 3
forces forces:
    rho: rho
    Not including porosity effects

Rigid-body motion of the floatingObject
    Centre of rotation: (0.500000000002 0.449997737319 0)
    Orientation: (1 0 0 0 1 0 0 0 1)
    Linear velocity: (-3.90174315112e-09 -0.00263679698815 0)
    Angular velocity: (0 0 0)
GAMGPCG:  Solving for pcorr, Initial residual = 1, Final residual = 4.32459551594e-06, No Iterations 6
time step continuity errors : sum local = 8.12289149276e-14, global = 3.35890261618e-14, cumulative = 6.61057543278e-12
smoothSolver:  Solving for alpha.water, Initial residual = 6.80203319847e-10, Final residual = 6.80203319847e-10, No Iterations 0
Phase-1 volume fraction = 0.53061224296  Min(alpha.water) = -6.60348365394e-89  Max(alpha.water) = 1.00000000094
Applying the previous iteration compression flux
MULES: Correcting alpha.water
MULES: Correcting alpha.water
MULES: Correcting alpha.water
MULES: Correcting alpha.water
Phase-1 volume fraction = 0.53061224296  Min(alpha.water) = -5.00794753013e-52  Max(alpha.water) = 1.00000000094
GAMGPCG:  Solving for p_rgh, Initial residual = 1.11933105113e-08, Final residual = 3.28068111755e-09, No Iterations 1
time step continuity errors : sum local = 3.83072757229e-10, global = -1.15400529112e-11, cumulative = -4.9294774784e-12
smoothSolver:  Solving for epsilon, Initial residual = 0.00179230459646, Final residual = 5.37588817271e-07, No Iterations 2
smoothSolver:  Solving for k, Initial residual = 0.22266070271, Final residual = 2.54265446795e-07, No Iterations 4
ExecutionTime = 1.25 s  ClockTime = 1 s

Courant Number mean: 1.3568647789e-05 max: 0.000259652129653
Interface Courant Number mean: 0 max: 0
deltaT = 0.000429546981995
Time = 0.00197884

PIMPLE: iteration 1
forces forces:
    rho: rho
    Not including porosity effects

Rigid-body motion of the floatingObject
    Centre of rotation: (0.500000000002 0.449996465921 0)
    Orientation: (1 0 0 0 1 0 0 0 1)
    Linear velocity: (6.81938508187e-09 -0.00328291935667 0)
    Angular velocity: (0 0 0)
GAMGPCG:  Solving for pcorr, Initial residual = 1, Final residual = 6.44805762179e-06, No Iterations 7
time step continuity errors : sum local = 4.91394202476e-13, global = 4.26793002163e-13, cumulative = -4.50268447623e-12
smoothSolver:  Solving for alpha.water, Initial residual = 2.67036087109e-07, Final residual = 8.77151108881e-17, No Iterations 1
Phase-1 volume fraction = 0.53061224296  Min(alpha.water) = 0  Max(alpha.water) = 1.00000000222
Applying the previous iteration compression flux
MULES: Correcting alpha.water
MULES: Correcting alpha.water
MULES: Correcting alpha.water
MULES: Correcting alpha.water
Phase-1 volume fraction = 0.53061224296  Min(alpha.water) = 0  Max(alpha.water) = 1.00000000222
GAMGPCG:  Solving for p_rgh, Initial residual = 1.66424284462e-05, Final residual = 1.31315350498e-09, No Iterations 3
time step continuity errors : sum local = 2.15908369462e-10, global = 5.78095362891e-12, cumulative = 1.27826915268e-12
PIMPLE: iteration 2
forces forces:
    rho: rho
    Not including porosity effects

Rigid-body motion of the floatingObject
    Centre of rotation: (0.500000000001 0.449996468681 0)
    Orientation: (1 0 0 0 1 0 0 0 1)
    Linear velocity: (2.58199187341e-10 -0.00327007191345 0)
    Angular velocity: (0 0 0)
GAMGPCG:  Solving for pcorr, Initial residual = 1, Final residual = 5.79079017733e-06, No Iterations 6
time step continuity errors : sum local = 1.62036013996e-13, global = -2.65459471781e-14, cumulative = 1.2517232055e-12
smoothSolver:  Solving for alpha.water, Initial residual = 6.20157923905e-10, Final residual = 6.20157923905e-10, No Iterations 0
Phase-1 volume fraction = 0.530612243538  Min(alpha.water) = 0  Max(alpha.water) = 1.00000000222
Applying the previous iteration compression flux
MULES: Correcting alpha.water
MULES: Correcting alpha.water
MULES: Correcting alpha.water
MULES: Correcting alpha.water
Phase-1 volume fraction = 0.530612243538  Min(alpha.water) = -6.34559696016e-130  Max(alpha.water) = 1.00000000222
GAMGPCG:  Solving for p_rgh, Initial residual = 1.47961477238e-07, Final residual = 2.7500421028e-09, No Iterations 2
time step continuity errors : sum local = 4.52895519569e-10, global = 9.6945170509e-12, cumulative = 1.09462402564e-11
PIMPLE: iteration 3
forces forces:
    rho: rho
    Not including porosity effects

Rigid-body motion of the floatingObject
    Centre of rotation: (0.5 0.449996468688 0)
    Orientation: (1 0 0 0 1 0 0 0 1)
    Linear velocity: (-4.28702088393e-09 -0.00327003926896 0)
    Angular velocity: (0 0 0)
GAMGPCG:  Solving for pcorr, Initial residual = 1, Final residual = 7.35660610282e-07, No Iterations 5
time step continuity errors : sum local = 2.00793772991e-14, global = 6.61941486901e-15, cumulative = 1.09528596713e-11
smoothSolver:  Solving for alpha.water, Initial residual = 7.54726007723e-10, Final residual = 7.54726007723e-10, No Iterations 0
Phase-1 volume fraction = 0.530612243539  Min(alpha.water) = -6.34559696016e-130  Max(alpha.water) = 1.00000000222
Applying the previous iteration compression flux
MULES: Correcting alpha.water
MULES: Correcting alpha.water
MULES: Correcting alpha.water
MULES: Correcting alpha.water
Phase-1 volume fraction = 0.530612243539  Min(alpha.water) = -1.27853309722e-63  Max(alpha.water) = 1.00000000222
GAMGPCG:  Solving for p_rgh, Initial residual = 1.08765587177e-08, Final residual = 1.3302247166e-09, No Iterations 1
time step continuity errors : sum local = 2.18890470632e-10, global = -1.33146865231e-13, cumulative = 1.0819712806e-11
smoothSolver:  Solving for epsilon, Initial residual = 0.00200340856396, Final residual = 8.66868435359e-07, No Iterations 2
smoothSolver:  Solving for k, Initial residual = 0.204933996264, Final residual = 4.69093083517e-07, No Iterations 4
ExecutionTime = 1.41 s  ClockTime = 1 s

Courant Number mean: 2.01662981405e-05 max: 0.000384450564439
Interface Courant Number mean: 0 max: 0
deltaT = 0.000515680100781
Time = 0.00249452

PIMPLE: iteration 1
forces forces:
    rho: rho
    Not including porosity effects

Rigid-body motion of the floatingObject
    Centre of rotation: (0.499999999995 0.449994588278 0)
    Orientation: (1 0 0 0 1 0 0 0 1)
    Linear velocity: (-1.52902487652e-08 -0.0040228907565 0)
    Angular velocity: (0 0 0)
GAMGPCG:  Solving for pcorr, Initial residual = 1, Final residual = 6.36594935201e-06, No Iterations 7
time step continuity errors : sum local = 6.9943567111e-13, global = 6.07370425858e-13, cumulative = 1.14270832319e-11
smoothSolver:  Solving for alpha.water, Initial residual = 3.9489138451e-07, Final residual = 1.97141171885e-16, No Iterations 1
Phase-1 volume fraction = 0.530612243539  Min(alpha.water) = 0  Max(alpha.water) = 1.00000000304
Applying the previous iteration compression flux
MULES: Correcting alpha.water
MULES: Correcting alpha.water
MULES: Correcting alpha.water
MULES: Correcting alpha.water
Phase-1 volume fraction = 0.530612243539  Min(alpha.water) = 0  Max(alpha.water) = 1.00000000304
GAMGPCG:  Solving for p_rgh, Initial residual = 2.408532325e-05, Final residual = 1.11974297386e-09, No Iterations 3
time step continuity errors : sum local = 2.59701280257e-10, global = 4.98306821222e-12, cumulative = 1.64101514441e-11
PIMPLE: iteration 2
forces forces:
    rho: rho
    Not including porosity effects

Rigid-body motion of the floatingObject
    Centre of rotation: (0.499999999996 0.449994589936 0)
    Orientation: (1 0 0 0 1 0 0 0 1)
    Linear velocity: (-1.03501286588e-08 -0.00401646205855 0)
    Angular velocity: (0 0 0)
GAMGPCG:  Solving for pcorr, Initial residual = 1, Final residual = 1.97127951644e-06, No Iterations 7
time step continuity errors : sum local = 7.98379921668e-14, global = -7.19712280367e-14, cumulative = 1.63381802161e-11
smoothSolver:  Solving for alpha.water, Initial residual = 5.78177976492e-10, Final residual = 5.78177976492e-10, No Iterations 0
Phase-1 volume fraction = 0.530612243886  Min(alpha.water) = 0  Max(alpha.water) = 1.00000000304
Applying the previous iteration compression flux
MULES: Correcting alpha.water
MULES: Correcting alpha.water
MULES: Correcting alpha.water
MULES: Correcting alpha.water
Phase-1 volume fraction = 0.530612243886  Min(alpha.water) = -1.62661333357e-127  Max(alpha.water) = 1.00000000304
GAMGPCG:  Solving for p_rgh, Initial residual = 1.54349804792e-07, Final residual = 2.95650308981e-09, No Iterations 2
time step continuity errors : sum local = 6.86029041621e-10, global = 6.62964418604e-12, cumulative = 2.29678244021e-11
PIMPLE: iteration 3
forces forces:
    rho: rho
    Not including porosity effects

Rigid-body motion of the floatingObject
    Centre of rotation: (0.499999999997 0.449994588218 0)
    Orientation: (1 0 0 0 1 0 0 0 1)
    Linear velocity: (-7.26763842371e-09 -0.00402312327919 0)
    Angular velocity: (0 0 0)
GAMGPCG:  Solving for pcorr, Initial residual = 1, Final residual = 1.55992054943e-06, No Iterations 7
time step continuity errors : sum local = 6.37607222057e-14, global = -5.52030985794e-14, cumulative = 2.29126213035e-11
smoothSolver:  Solving for alpha.water, Initial residual = 7.59657060156e-10, Final residual = 7.59657060156e-10, No Iterations 0
Phase-1 volume fraction = 0.530612243527  Min(alpha.water) = -1.62661333357e-127  Max(alpha.water) = 1.00000000304
Applying the previous iteration compression flux
MULES: Correcting alpha.water
MULES: Correcting alpha.water
MULES: Correcting alpha.water
MULES: Correcting alpha.water
Phase-1 volume fraction = 0.530612243527  Min(alpha.water) = -2.92096264562e-56  Max(alpha.water) = 1.00000000304
GAMGPCG:  Solving for p_rgh, Initial residual = 1.56775282315e-08, Final residual = 2.85584667436e-09, No Iterations 1
time step continuity errors : sum local = 6.62096832252e-10, global = -1.17529922471e-11, cumulative = 1.11596290564e-11
smoothSolver:  Solving for epsilon, Initial residual = 0.002241338381, Final residual = 4.93176654389e-08, No Iterations 3
smoothSolver:  Solving for k, Initial residual = 0.192576418895, Final residual = 8.82944117985e-07, No Iterations 4
ExecutionTime = 1.57 s  ClockTime = 1 s

Courant Number mean: 2.98612162669e-05 max: 0.000567267749197
Interface Courant Number mean: 0 max: 0
deltaT = 0.000619139431345
Time = 0.00311366

PIMPLE: iteration 1
forces forces:
    rho: rho
    Not including porosity effects

Rigid-body motion of the floatingObject
    Centre of rotation: (0.499999999994 0.44999181596 0)
    Orientation: (1 0 0 0 1 0 0 0 1)
    Linear velocity: (-1.76307181951e-09 -0.00493207673662 0)
    Angular velocity: (0 0 0)
GAMGPCG:  Solving for pcorr, Initial residual = 1, Final residual = 6.0415784602e-06, No Iterations 7
time step continuity errors : sum local = 9.63266665307e-13, global = 7.86123906778e-13, cumulative = 1.19457529632e-11
smoothSolver:  Solving for alpha.water, Initial residual = 5.82220061455e-07, Final residual = 5.68217128426e-16, No Iterations 1
Phase-1 volume fraction = 0.530612243527  Min(alpha.water) = 0  Max(alpha.water) = 1.00000000998
Applying the previous iteration compression flux
MULES: Correcting alpha.water
MULES: Correcting alpha.water
MULES: Correcting alpha.water
MULES: Correcting alpha.water
Phase-1 volume fraction = 0.530612243527  Min(alpha.water) = 0  Max(alpha.water) = 1.00000000998
GAMGPCG:  Solving for p_rgh, Initial residual = 3.48339881129e-05, Final residual = 1.68273618583e-09, No Iterations 3
time step continuity errors : sum local = 5.49127012286e-10, global = 1.15753349485e-11, cumulative = 2.35210879117e-11
PIMPLE: iteration 2
forces forces:
    rho: rho
    Not including porosity effects

Rigid-body motion of the floatingObject
    Centre of rotation: (0.499999999993 0.449991820272 0)
    Orientation: (1 0 0 0 1 0 0 0 1)
    Linear velocity: (-5.62567773024e-09 -0.00491814535877 0)
    Angular velocity: (0 0 0)
GAMGPCG:  Solving for pcorr, Initial residual = 1, Final residual = 9.54726868099e-06, No Iterations 6
time step continuity errors : sum local = 5.76113410133e-13, global = 1.57598713358e-13, cumulative = 2.36786866251e-11
smoothSolver:  Solving for alpha.water, Initial residual = 1.1534629456e-09, Final residual = 1.1534629456e-09, No Iterations 0
Phase-1 volume fraction = 0.530612244429  Min(alpha.water) = 0  Max(alpha.water) = 1.00000000998
Applying the previous iteration compression flux
MULES: Correcting alpha.water
MULES: Correcting alpha.water
MULES: Correcting alpha.water
MULES: Correcting alpha.water
Phase-1 volume fraction = 0.530612244429  Min(alpha.water) = -1.96417483243e-120  Max(alpha.water) = 1.00000000998
GAMGPCG:  Solving for p_rgh, Initial residual = 1.66952581632e-07, Final residual = 3.36441475811e-09, No Iterations 2
time step continuity errors : sum local = 1.09916202708e-09, global = 1.12744896103e-11, cumulative = 3.49531762353e-11
PIMPLE: iteration 3
forces forces:
    rho: rho
    Not including porosity effects

Rigid-body motion of the floatingObject
    Centre of rotation: (0.499999999992 0.449991818178 0)
    Orientation: (1 0 0 0 1 0 0 0 1)
    Linear velocity: (-8.1285499269e-09 -0.00492491121792 0)
    Angular velocity: (0 0 0)
GAMGPCG:  Solving for pcorr, Initial residual = 1, Final residual = 1.54090678269e-06, No Iterations 7
time step continuity errors : sum local = 9.25276858383e-14, global = -7.13983052796e-14, cumulative = 3.48817779301e-11
smoothSolver:  Solving for alpha.water, Initial residual = 1.49474489825e-09, Final residual = 1.49474489825e-09, No Iterations 0
Phase-1 volume fraction = 0.530612243991  Min(alpha.water) = -1.96417483243e-120  Max(alpha.water) = 1.00000000998
Applying the previous iteration compression flux
MULES: Correcting alpha.water
MULES: Correcting alpha.water
MULES: Correcting alpha.water
MULES: Correcting alpha.water
Phase-1 volume fraction = 0.530612243991  Min(alpha.water) = -4.00349532908e-55  Max(alpha.water) = 1.00000000998
GAMGPCG:  Solving for p_rgh, Initial residual = 2.28192022715e-08, Final residual = 3.76639974991e-09, No Iterations 1
time step continuity errors : sum local = 1.22916259254e-09, global = -1.45006277092e-11, cumulative = 2.03811502209e-11
smoothSolver:  Solving for epsilon, Initial residual = 0.0025063562804, Final residual = 9.49102109695e-08, No Iterations 3
smoothSolver:  Solving for k, Initial residual = 0.183580641379, Final residual = 1.03803237976e-07, No Iterations 5
ExecutionTime = 1.73 s  ClockTime = 1 s

Courant Number mean: 4.39156793965e-05 max: 0.00083122647542
Interface Courant Number mean: 0 max: 0
deltaT = 0.000742967317614
Time = 0.00385663

PIMPLE: iteration 1
forces forces:
    rho: rho
    Not including porosity effects

Rigid-body motion of the floatingObject
    Centre of rotation: (0.499999999984 0.449987756558 0)
    Orientation: (1 0 0 0 1 0 0 0 1)
    Linear velocity: (-1.40591966553e-08 -0.00600859693792 0)
    Angular velocity: (0 0 0)
GAMGPCG:  Solving for pcorr, Initial residual = 1, Final residual = 6.00664919199e-06, No Iterations 7
time step continuity errors : sum local = 1.38761245979e-12, global = 1.13325868408e-12, cumulative = 2.1514408905e-11
smoothSolver:  Solving for alpha.water, Initial residual = 8.53005745321e-07, Final residual = 1.72656877884e-15, No Iterations 1
Phase-1 volume fraction = 0.530612243991  Min(alpha.water) = 0  Max(alpha.water) = 1.00000001996
Applying the previous iteration compression flux
MULES: Correcting alpha.water
MULES: Correcting alpha.water
MULES: Correcting alpha.water
MULES: Correcting alpha.water
Phase-1 volume fraction = 0.530612243991  Min(alpha.water) = 0  Max(alpha.water) = 1.00000001996
GAMGPCG:  Solving for p_rgh, Initial residual = 4.98577623693e-05, Final residual = 2.35964046566e-09, No Iterations 3
time step continuity errors : sum local = 1.08068641792e-09, global = 2.03236889165e-11, cumulative = 4.18380978214e-11
PIMPLE: iteration 2
forces forces:
    rho: rho
    Not including porosity effects

Rigid-body motion of the floatingObject
    Centre of rotation: (0.499999999985 0.449987763392 0)
    Orientation: (1 0 0 0 1 0 0 0 1)
    Linear velocity: (-1.23593947866e-08 -0.00599020032615 0)
    Angular velocity: (0 0 0)
GAMGPCG:  Solving for pcorr, Initial residual = 1, Final residual = 7.17851893075e-06, No Iterations 6
time step continuity errors : sum local = 6.36897635261e-13, global = 6.64149006029e-14, cumulative = 4.1904512722e-11
smoothSolver:  Solving for alpha.water, Initial residual = 1.8578641531e-09, Final residual = 1.8578641531e-09, No Iterations 0
Phase-1 volume fraction = 0.53061224542  Min(alpha.water) = 0  Max(alpha.water) = 1.00000001996
Applying the previous iteration compression flux
MULES: Correcting alpha.water
MULES: Correcting alpha.water
MULES: Correcting alpha.water
MULES: Correcting alpha.water
Phase-1 volume fraction = 0.53061224542  Min(alpha.water) = -3.42252552572e-117  Max(alpha.water) = 1.00000001996
GAMGPCG:  Solving for p_rgh, Initial residual = 1.81627235769e-07, Final residual = 3.7053959955e-09, No Iterations 2
time step continuity errors : sum local = 1.69903091055e-09, global = 4.13683621014e-11, cumulative = 8.32728748235e-11
PIMPLE: iteration 3
forces forces:
    rho: rho
    Not including porosity effects

Rigid-body motion of the floatingObject
    Centre of rotation: (0.499999999985 0.449987759513 0)
    Orientation: (1 0 0 0 1 0 0 0 1)
    Linear velocity: (-1.19897035249e-08 -0.00600064232217 0)
    Angular velocity: (0 0 0)
GAMGPCG:  Solving for pcorr, Initial residual = 1, Final residual = 1.58738525805e-06, No Iterations 7
time step continuity errors : sum local = 1.3995631536e-13, global = -1.23446059754e-13, cumulative = 8.31494287637e-11
smoothSolver:  Solving for alpha.water, Initial residual = 2.48279563465e-09, Final residual = 2.48279563465e-09, No Iterations 0
Phase-1 volume fraction = 0.530612244609  Min(alpha.water) = -3.42252552572e-117  Max(alpha.water) = 1.00000001996
Applying the previous iteration compression flux
MULES: Correcting alpha.water
MULES: Correcting alpha.water
MULES: Correcting alpha.water
MULES: Correcting alpha.water
Phase-1 volume fraction = 0.530612244609  Min(alpha.water) = -4.59777809561e-52  Max(alpha.water) = 1.00000001995
GAMGPCG:  Solving for p_rgh, Initial residual = 3.76747251367e-08, Final residual = 5.95299912597e-09, No Iterations 1
time step continuity errors : sum local = 2.72611558537e-09, global = -2.44118391901e-11, cumulative = 5.87375895736e-11
smoothSolver:  Solving for epsilon, Initial residual = 0.00279856234578, Final residual = 1.82323272494e-07, No Iterations 3
smoothSolver:  Solving for k, Initial residual = 0.176722976794, Final residual = 2.33665208103e-07, No Iterations 5
ExecutionTime = 1.89 s  ClockTime = 2 s

Courant Number mean: 6.42970371786e-05 max: 0.00121249846301
Interface Courant Number mean: 0 max: 0
deltaT = 0.000891560781137
Time = 0.00474819

PIMPLE: iteration 1
forces forces:
    rho: rho
    Not including porosity effects

Rigid-body motion of the floatingObject
    Centre of rotation: (0.499999999974 0.449981832731 0)
    Orientation: (1 0 0 0 1 0 0 0 1)
    Linear velocity: (-1.3052304603e-08 -0.00729465291674 0)
    Angular velocity: (0 0 0)
GAMGPCG:  Solving for pcorr, Initial residual = 1, Final residual = 6.16851019114e-06, No Iterations 7
time step continuity errors : sum local = 2.05893323064e-12, global = 1.78474050427e-12, cumulative = 6.05223300779e-11
smoothSolver:  Solving for alpha.water, Initial residual = 1.24473751618e-06, Final residual = 5.29730603352e-15, No Iterations 1
Phase-1 volume fraction = 0.530612244609  Min(alpha.water) = 0  Max(alpha.water) = 1.00000003842
Applying the previous iteration compression flux
MULES: Correcting alpha.water
MULES: Correcting alpha.water
MULES: Correcting alpha.water
MULES: Correcting alpha.water
Phase-1 volume fraction = 0.530612244609  Min(alpha.water) = 0  Max(alpha.water) = 1.00000003841
GAMGPCG:  Solving for p_rgh, Initial residual = 7.07121759992e-05, Final residual = 3.29025599717e-09, No Iterations 3
time step continuity errors : sum local = 2.10927755132e-09, global = 4.46010907012e-11, cumulative = 1.05123420779e-10
PIMPLE: iteration 2
forces forces:
    rho: rho
    Not including porosity effects

Rigid-body motion of the floatingObject
    Centre of rotation: (0.499999999973 0.44998184424 0)
    Orientation: (1 0 0 0 1 0 0 0 1)
    Linear velocity: (-1.47986745147e-08 -0.00726883528022 0)
    Angular velocity: (0 0 0)
GAMGPCG:  Solving for pcorr, Initial residual = 1, Final residual = 6.31008850343e-06, No Iterations 6
time step continuity errors : sum local = 8.22013312841e-13, global = -2.7213292428e-14, cumulative = 1.05096207487e-10
smoothSolver:  Solving for alpha.water, Initial residual = 3.12884724433e-09, Final residual = 3.12884724433e-09, No Iterations 0
Phase-1 volume fraction = 0.530612247016  Min(alpha.water) = 0  Max(alpha.water) = 1.00000003841
Applying the previous iteration compression flux
MULES: Correcting alpha.water
MULES: Correcting alpha.water
MULES: Correcting alpha.water
MULES: Correcting alpha.water
Phase-1 volume fraction = 0.530612247016  Min(alpha.water) = -4.27587831091e-112  Max(alpha.water) = 1.00000003841
GAMGPCG:  Solving for p_rgh, Initial residual = 2.05071832282e-07, Final residual = 4.25006397556e-09, No Iterations 2
time step continuity errors : sum local = 2.72850557455e-09, global = 6.81407714623e-11, cumulative = 1.73236978949e-10
PIMPLE: iteration 3
forces forces:
    rho: rho
    Not including porosity effects

Rigid-body motion of the floatingObject
    Centre of rotation: (0.499999999972 0.449981837599 0)
    Orientation: (1 0 0 0 1 0 0 0 1)
    Linear velocity: (-1.68930327216e-08 -0.00728373254767 0)
    Angular velocity: (0 0 0)
GAMGPCG:  Solving for pcorr, Initial residual = 1, Final residual = 1.4610076942e-06, No Iterations 7
time step continuity errors : sum local = 1.88406069344e-13, global = -1.73856284393e-13, cumulative = 1.73063122665e-10
smoothSolver:  Solving for alpha.water, Initial residual = 4.2788280208e-09, Final residual = 4.2788280208e-09, No Iterations 0
Phase-1 volume fraction = 0.530612245627  Min(alpha.water) = -4.27587831091e-112  Max(alpha.water) = 1.00000003841
Applying the previous iteration compression flux
MULES: Correcting alpha.water
MULES: Correcting alpha.water
MULES: Correcting alpha.water
MULES: Correcting alpha.water
Phase-1 volume fraction = 0.530612245627  Min(alpha.water) = -2.350480005e-49  Max(alpha.water) = 1.0000000384
GAMGPCG:  Solving for p_rgh, Initial residual = 6.72579538574e-08, Final residual = 7.65787082381e-10, No Iterations 2
time step continuity errors : sum local = 4.90877561707e-10, global = -5.53778644609e-12, cumulative = 1.67525336219e-10
smoothSolver:  Solving for epsilon, Initial residual = 0.00311847785641, Final residual = 3.4982145053e-07, No Iterations 3
smoothSolver:  Solving for k, Initial residual = 0.171580943228, Final residual = 5.24873830941e-07, No Iterations 5
ExecutionTime = 2.06 s  ClockTime = 2 s

Courant Number mean: 9.37411813848e-05 max: 0.00176087493891
Interface Courant Number mean: 0 max: 0
deltaT = 0.00106694978726
Time = 0.00581514

PIMPLE: iteration 1
forces forces:
    rho: rho
    Not including porosity effects

Rigid-body motion of the floatingObject
    Centre of rotation: (0.49999999995 0.449973244092 0)
    Orientation: (1 0 0 0 1 0 0 0 1)
    Linear velocity: (-2.46297124885e-08 -0.0088248173669 0)
    Angular velocity: (0 0 0)
GAMGPCG:  Solving for pcorr, Initial residual = 1, Final residual = 6.16567105674e-06, No Iterations 7
time step continuity errors : sum local = 2.93027177517e-12, global = 2.53956847337e-12, cumulative = 1.70064904692e-10
smoothSolver:  Solving for alpha.water, Initial residual = 1.80444483637e-06, Final residual = 1.59877887741e-14, No Iterations 1
Phase-1 volume fraction = 0.530612245627  Min(alpha.water) = 0  Max(alpha.water) = 1.00000003677
Applying the previous iteration compression flux
MULES: Correcting alpha.water
MULES: Correcting alpha.water
MULES: Correcting alpha.water
MULES: Correcting alpha.water
Phase-1 volume fraction = 0.530612245627  Min(alpha.water) = 0  Max(alpha.water) = 1.00000003677
GAMGPCG:  Solving for p_rgh, Initial residual = 9.8756827622e-05, Final residual = 4.58575947654e-09, No Iterations 3
time step continuity errors : sum local = 4.08239169417e-09, global = 8.49199633133e-11, cumulative = 2.54984868005e-10
PIMPLE: iteration 2
forces forces:
    rho: rho
    Not including porosity effects

Rigid-body motion of the floatingObject
    Centre of rotation: (0.499999999951 0.449973263892 0)
    Orientation: (1 0 0 0 1 0 0 0 1)
    Linear velocity: (-2.21720640386e-08 -0.00878770313393 0)
    Angular velocity: (0 0 0)
GAMGPCG:  Solving for pcorr, Initial residual = 1, Final residual = 5.58202019375e-06, No Iterations 6
time step continuity errors : sum local = 1.06393021212e-12, global = -2.10261481702e-13, cumulative = 2.54774606524e-10
smoothSolver:  Solving for alpha.water, Initial residual = 5.39714756057e-09, Final residual = 5.39714756057e-09, No Iterations 0
Phase-1 volume fraction = 0.530612249769  Min(alpha.water) = 0  Max(alpha.water) = 1.00000003677
Applying the previous iteration compression flux
MULES: Correcting alpha.water
MULES: Correcting alpha.water
MULES: Correcting alpha.water
MULES: Correcting alpha.water
Phase-1 volume fraction = 0.530612249769  Min(alpha.water) = -4.146090394e-107  Max(alpha.water) = 1.00000003676
GAMGPCG:  Solving for p_rgh, Initial residual = 2.66082446105e-07, Final residual = 5.33408963109e-09, No Iterations 2
time step continuity errors : sum local = 4.75672721819e-09, global = 1.11755929001e-10, cumulative = 3.66530535524e-10
PIMPLE: iteration 3
forces forces:
    rho: rho
    Not including porosity effects

Rigid-body motion of the floatingObject
    Centre of rotation: (0.499999999951 0.449973252898 0)
    Orientation: (1 0 0 0 1 0 0 0 1)
    Linear velocity: (-2.20887343544e-08 -0.0088083116525 0)
    Angular velocity: (0 0 0)
GAMGPCG:  Solving for pcorr, Initial residual = 1, Final residual = 8.53694298025e-06, No Iterations 6
time step continuity errors : sum local = 1.60350115968e-12, global = 9.73780884756e-13, cumulative = 3.67504316409e-10
smoothSolver:  Solving for alpha.water, Initial residual = 7.50060864457e-09, Final residual = 7.50060864457e-09, No Iterations 0
Phase-1 volume fraction = 0.530612247469  Min(alpha.water) = -4.146090394e-107  Max(alpha.water) = 1.00000003676
Applying the previous iteration compression flux
MULES: Correcting alpha.water
MULES: Correcting alpha.water
MULES: Correcting alpha.water
MULES: Correcting alpha.water
Phase-1 volume fraction = 0.530612247469  Min(alpha.water) = -7.58625334941e-54  Max(alpha.water) = 1.00000003675
GAMGPCG:  Solving for p_rgh, Initial residual = 1.25800126502e-07, Final residual = 1.23716247957e-09, No Iterations 2
time step continuity errors : sum local = 1.10124365834e-09, global = -9.93385942389e-12, cumulative = 3.57570456985e-10
smoothSolver:  Solving for epsilon, Initial residual = 0.00345184356553, Final residual = 6.62858976488e-07, No Iterations 3
smoothSolver:  Solving for k, Initial residual = 0.167014061522, Final residual = 1.1780067199e-07, No Iterations 6
ExecutionTime = 2.22 s  ClockTime = 2 s

Courant Number mean: 0.000135818306425 max: 0.00254101664052
Interface Courant Number mean: 0 max: 0
deltaT = 0.00127753198212
Time = 0.00709267

PIMPLE: iteration 1
forces forces:
    rho: rho
    Not including porosity effects

Rigid-body motion of the floatingObject
    Centre of rotation: (0.499999999922 0.449960829927 0)
    Orientation: (1 0 0 0 1 0 0 0 1)
    Linear velocity: (-2.33591556209e-08 -0.0106400790854 0)
    Angular velocity: (0 0 0)
GAMGPCG:  Solving for pcorr, Initial residual = 1, Final residual = 6.11552733168e-06, No Iterations 7
time step continuity errors : sum local = 4.16046802195e-12, global = 3.60417424589e-12, cumulative = 3.61174631231e-10
smoothSolver:  Solving for alpha.water, Initial residual = 2.60855884115e-06, Final residual = 4.7556569935e-14, No Iterations 1
Phase-1 volume fraction = 0.530612247469  Min(alpha.water) = 0  Max(alpha.water) = 1.00000003437
Applying the previous iteration compression flux
MULES: Correcting alpha.water
MULES: Correcting alpha.water
MULES: Correcting alpha.water
MULES: Correcting alpha.water
Phase-1 volume fraction = 0.530612247469  Min(alpha.water) = 0  Max(alpha.water) = 1.00000003436
GAMGPCG:  Solving for p_rgh, Initial residual = 0.000135541958172, Final residual = 6.36316120822e-09, No Iterations 3
time step continuity errors : sum local = 7.84725267085e-09, global = 1.57407384928e-10, cumulative = 5.18582016159e-10
PIMPLE: iteration 2
forces forces:
    rho: rho
    Not including porosity effects

Rigid-body motion of the floatingObject
    Centre of rotation: (0.499999999922 0.449960862467 0)
    Orientation: (1 0 0 0 1 0 0 0 1)
    Linear velocity: (-2.39073552305e-08 -0.0105891380942 0)
    Angular velocity: (0 0 0)
GAMGPCG:  Solving for pcorr, Initial residual = 1, Final residual = 5.22034698613e-06, No Iterations 6
time step continuity errors : sum local = 1.45267877228e-12, global = -4.49007326867e-13, cumulative = 5.18133008833e-10
smoothSolver:  Solving for alpha.water, Initial residual = 9.18833001888e-09, Final residual = 9.18833001888e-09, No Iterations 0
Phase-1 volume fraction = 0.530612254276  Min(alpha.water) = 0  Max(alpha.water) = 1.00000003436
Applying the previous iteration compression flux
MULES: Correcting alpha.water
MULES: Correcting alpha.water
MULES: Correcting alpha.water
MULES: Correcting alpha.water
Phase-1 volume fraction = 0.530612254276  Min(alpha.water) = -3.79910441076e-102  Max(alpha.water) = 1.00000003436
GAMGPCG:  Solving for p_rgh, Initial residual = 3.85470470143e-07, Final residual = 7.2594812149e-09, No Iterations 2
time step continuity errors : sum local = 8.97058531531e-09, global = 1.80993692597e-10, cumulative = 6.9912670143e-10
PIMPLE: iteration 3
forces forces:
    rho: rho
    Not including porosity effects

Rigid-body motion of the floatingObject
    Centre of rotation: (0.49999999992 0.449960843574 0)
    Orientation: (1 0 0 0 1 0 0 0 1)
    Linear velocity: (-2.62661450546e-08 -0.0106187139898 0)
    Angular velocity: (0 0 0)
GAMGPCG:  Solving for pcorr, Initial residual = 1, Final residual = 7.87794339009e-06, No Iterations 6
time step continuity errors : sum local = 2.15858110103e-12, global = 1.31383126962e-12, cumulative = 7.004405327e-10
smoothSolver:  Solving for alpha.water, Initial residual = 1.30648676942e-08, Final residual = 3.89480176381e-16, No Iterations 1
Phase-1 volume fraction = 0.530612247469  Min(alpha.water) = 0  Max(alpha.water) = 1.00000003438
Applying the previous iteration compression flux
MULES: Correcting alpha.water
MULES: Correcting alpha.water
MULES: Correcting alpha.water
MULES: Correcting alpha.water
Phase-1 volume fraction = 0.530612247469  Min(alpha.water) = 0  Max(alpha.water) = 1.00000003437
GAMGPCG:  Solving for p_rgh, Initial residual = 7.29591993787e-07, Final residual = 1.18848807191e-09, No Iterations 2
time step continuity errors : sum local = 1.46547276561e-09, global = -1.22885268292e-11, cumulative = 6.8815200587e-10
smoothSolver:  Solving for epsilon, Initial residual = 0.00381161059254, Final residual = 1.12347933631e-07, No Iterations 4
smoothSolver:  Solving for k, Initial residual = 0.163658854436, Final residual = 3.0214159988e-07, No Iterations 6
ExecutionTime = 2.39 s  ClockTime = 2 s

Courant Number mean: 0.000196244484938 max: 0.00365605305033
Interface Courant Number mean: 0 max: 0
deltaT = 0.00153101055
Time = 0.00862368

PIMPLE: iteration 1
forces forces:
    rho: rho
    Not including porosity effects

Rigid-body motion of the floatingObject
    Centre of rotation: (0.499999999876 0.449942916895 0)
    Orientation: (1 0 0 0 1 0 0 0 1)
    Linear velocity: (-3.12048833067e-08 -0.0127993868936 0)
    Angular velocity: (0 0 0)
GAMGPCG:  Solving for pcorr, Initial residual = 1, Final residual = 6.07864406134e-06, No Iterations 7
time step continuity errors : sum local = 5.92159802715e-12, global = 5.12784631585e-12, cumulative = 6.93279852186e-10
smoothSolver:  Solving for alpha.water, Initial residual = 3.76423004593e-06, Final residual = 1.39868502811e-13, No Iterations 1
Phase-1 volume fraction = 0.530612247469  Min(alpha.water) = 0  Max(alpha.water) = 1.0000000344
Applying the previous iteration compression flux
MULES: Correcting alpha.water
MULES: Correcting alpha.water
MULES: Correcting alpha.water
MULES: Correcting alpha.water
Phase-1 volume fraction = 0.530612247469  Min(alpha.water) = 0  Max(alpha.water) = 1.00000003439
GAMGPCG:  Solving for p_rgh, Initial residual = 0.00018171770572, Final residual = 8.7873097001e-09, No Iterations 3
time step continuity errors : sum local = 1.49760789119e-08, global = 2.84868495633e-10, cumulative = 9.78148347819e-10
PIMPLE: iteration 2
forces forces:
    rho: rho
    Not including porosity effects

Rigid-body motion of the floatingObject
    Centre of rotation: (0.499999999877 0.449942972363 0)
    Orientation: (1 0 0 0 1 0 0 0 1)
    Linear velocity: (-3.00163347258e-08 -0.0127269276196 0)
    Angular velocity: (0 0 0)
GAMGPCG:  Solving for pcorr, Initial residual = 1, Final residual = 4.92745026185e-06, No Iterations 6
time step continuity errors : sum local = 2.006874703e-12, global = -8.78446367619e-13, cumulative = 9.77269901452e-10
smoothSolver:  Solving for alpha.water, Initial residual = 1.62767295306e-08, Final residual = 8.95525891971e-16, No Iterations 1
Phase-1 volume fraction = 0.530612247469  Min(alpha.water) = 0  Max(alpha.water) = 1.00000003441
Applying the previous iteration compression flux
MULES: Correcting alpha.water
MULES: Correcting alpha.water
MULES: Correcting alpha.water
MULES: Correcting alpha.water
Phase-1 volume fraction = 0.530612247469  Min(alpha.water) = 0  Max(alpha.water) = 1.00000003439
GAMGPCG:  Solving for p_rgh, Initial residual = 7.82589823751e-07, Final residual = 1.03782242746e-09, No Iterations 3
time step continuity errors : sum local = 1.77298364122e-09, global = -3.07814288165e-11, cumulative = 9.46488472635e-10
PIMPLE: iteration 3
forces forces:
    rho: rho
    Not including porosity effects

Rigid-body motion of the floatingObject
    Centre of rotation: (0.499999999877 0.449942940934 0)
    Orientation: (1 0 0 0 1 0 0 0 1)
    Linear velocity: (-2.98951482418e-08 -0.0127679838484 0)
    Angular velocity: (0 0 0)
GAMGPCG:  Solving for pcorr, Initial residual = 1, Final residual = 5.83222023403e-06, No Iterations 6
time step continuity errors : sum local = 2.24755997287e-12, global = 1.1647009879e-12, cumulative = 9.47653173623e-10
smoothSolver:  Solving for alpha.water, Initial residual = 1.5973057595e-08, Final residual = 4.83225454853e-16, No Iterations 1
Phase-1 volume fraction = 0.530612247469  Min(alpha.water) = 0  Max(alpha.water) = 1.00000003441
Applying the previous iteration compression flux
MULES: Correcting alpha.water
MULES: Correcting alpha.water
MULES: Correcting alpha.water
MULES: Correcting alpha.water
Phase-1 volume fraction = 0.530612247469  Min(alpha.water) = 0  Max(alpha.water) = 1.0000000344
GAMGPCG:  Solving for p_rgh, Initial residual = 7.8465554247e-07, Final residual = 1.44090589942e-09, No Iterations 2
time step continuity errors : sum local = 2.44761828996e-09, global = -2.29766016212e-11, cumulative = 9.24676572002e-10
smoothSolver:  Solving for epsilon, Initial residual = 0.00419413360216, Final residual = 2.52126754049e-07, No Iterations 4
smoothSolver:  Solving for k, Initial residual = 0.1612839432, Final residual = 7.67541153169e-07, No Iterations 6
ExecutionTime = 2.56 s  ClockTime = 2 s

Courant Number mean: 0.000283075672745 max: 0.00525046504837
Interface Courant Number mean: 0 max: 0
deltaT = 0.00184015691105
Time = 0.0104638

PIMPLE: iteration 1
forces forces:
    rho: rho
    Not including porosity effects

Rigid-body motion of the floatingObject
    Centre of rotation: (0.499999999822 0.449917056201 0)
    Orientation: (1 0 0 0 1 0 0 0 1)
    Linear velocity: (-3.02444832801e-08 -0.0153651966716 0)
    Angular velocity: (0 0 0)
GAMGPCG:  Solving for pcorr, Initial residual = 1, Final residual = 6.00237958331e-06, No Iterations 7
time step continuity errors : sum local = 8.39482061126e-12, global = 6.93981151586e-12, cumulative = 9.31616383518e-10
smoothSolver:  Solving for alpha.water, Initial residual = 5.43530381038e-06, Final residual = 4.08514218836e-13, No Iterations 1
Phase-1 volume fraction = 0.530612247469  Min(alpha.water) = 0  Max(alpha.water) = 1.00000003418
Applying the previous iteration compression flux
MULES: Correcting alpha.water
MULES: Correcting alpha.water
MULES: Correcting alpha.water
MULES: Correcting alpha.water
Phase-1 volume fraction = 0.530612247469  Min(alpha.water) = 0  Max(alpha.water) = 1.00000003416
GAMGPCG:  Solving for p_rgh, Initial residual = 0.000236827295622, Final residual = 1.13812836702e-09, No Iterations 4
time step continuity errors : sum local = 2.68232303446e-09, global = 5.88635986098e-11, cumulative = 9.90479982128e-10
PIMPLE: iteration 2
forces forces:
    rho: rho
    Not including porosity effects

Rigid-body motion of the floatingObject
    Centre of rotation: (0.499999999821 0.449917149169 0)
    Orientation: (1 0 0 0 1 0 0 0 1)
    Linear velocity: (-3.10979934418e-08 -0.0152641524493 0)
    Angular velocity: (0 0 0)
GAMGPCG:  Solving for pcorr, Initial residual = 1, Final residual = 4.91087818324e-06, No Iterations 6
time step continuity errors : sum local = 2.81126119764e-12, global = -1.52018675198e-12, cumulative = 9.88959795376e-10
smoothSolver:  Solving for alpha.water, Initial residual = 2.90958527627e-08, Final residual = 2.91353847954e-15, No Iterations 1
Phase-1 volume fraction = 0.530612247469  Min(alpha.water) = 0  Max(alpha.water) = 1.00000003418
Applying the previous iteration compression flux
MULES: Correcting alpha.water
MULES: Correcting alpha.water
MULES: Correcting alpha.water
MULES: Correcting alpha.water
Phase-1 volume fraction = 0.530612247469  Min(alpha.water) = 0  Max(alpha.water) = 1.00000003416
GAMGPCG:  Solving for p_rgh, Initial residual = 1.06259403811e-06, Final residual = 1.34835926434e-09, No Iterations 3
time step continuity errors : sum local = 3.17526084793e-09, global = -4.87030480254e-11, cumulative = 9.4025674735e-10
PIMPLE: iteration 3
forces forces:
    rho: rho
    Not including porosity effects

Rigid-body motion of the floatingObject
    Centre of rotation: (0.49999999982 0.449917095527 0)
    Orientation: (1 0 0 0 1 0 0 0 1)
    Linear velocity: (-3.20647916819e-08 -0.0153224540292 0)
    Angular velocity: (0 0 0)
GAMGPCG:  Solving for pcorr, Initial residual = 1, Final residual = 4.76239032668e-06, No Iterations 6
time step continuity errors : sum local = 2.66001320353e-12, global = 1.21377709547e-12, cumulative = 9.41470524446e-10
smoothSolver:  Solving for alpha.water, Initial residual = 2.77463330419e-08, Final residual = 1.60740031862e-15, No Iterations 1
Phase-1 volume fraction = 0.530612247469  Min(alpha.water) = 0  Max(alpha.water) = 1.00000003419
Applying the previous iteration compression flux
MULES: Correcting alpha.water
MULES: Correcting alpha.water
MULES: Correcting alpha.water
MULES: Correcting alpha.water
Phase-1 volume fraction = 0.530612247469  Min(alpha.water) = 0  Max(alpha.water) = 1.00000003417
GAMGPCG:  Solving for p_rgh, Initial residual = 1.22727197905e-06, Final residual = 1.68892491409e-09, No Iterations 2
time step continuity errors : sum local = 3.96535438602e-09, global = -4.1821875816e-11, cumulative = 8.9964864863e-10
smoothSolver:  Solving for epsilon, Initial residual = 0.00460407120878, Final residual = 5.67970311427e-07, No Iterations 4
smoothSolver:  Solving for k, Initial residual = 0.160018362839, Final residual = 3.1913970004e-07, No Iterations 7
ExecutionTime = 2.73 s  ClockTime = 2 s

Courant Number mean: 0.000408705398366 max: 0.00754569822816
Interface Courant Number mean: 2.90403984438e-06 max: 0.00474691732869
deltaT = 0.00220390885859
Time = 0.0126677

PIMPLE: iteration 1
forces forces:
    rho: rho
    Not including porosity effects

Rigid-body motion of the floatingObject
    Centre of rotation: (0.499999999747 0.449879931781 0)
    Orientation: (1 0 0 0 1 0 0 0 1)
    Linear velocity: (-3.46411918689e-08 -0.0184028479808 0)
    Angular velocity: (0 0 0)
GAMGPCG:  Solving for pcorr, Initial residual = 1, Final residual = 5.98079282842e-06, No Iterations 7
time step continuity errors : sum local = 1.19359884489e-11, global = 1.03237161243e-11, cumulative = 9.09972364754e-10
smoothSolver:  Solving for alpha.water, Initial residual = 7.80377180595e-06, Final residual = 1.16344044375e-12, No Iterations 1
Phase-1 volume fraction = 0.530612247468  Min(alpha.water) = 0  Max(alpha.water) = 1.00000008552
Applying the previous iteration compression flux
MULES: Correcting alpha.water
MULES: Correcting alpha.water
MULES: Correcting alpha.water
MULES: Correcting alpha.water
Phase-1 volume fraction = 0.530612247468  Min(alpha.water) = 0  Max(alpha.water) = 1.00000008507
GAMGPCG:  Solving for p_rgh, Initial residual = 0.000297804288203, Final residual = 1.54169110832e-09, No Iterations 4
time step continuity errors : sum local = 4.94812428533e-09, global = 1.09675974478e-10, cumulative = 1.01964833923e-09
PIMPLE: iteration 2
forces forces:
    rho: rho
    Not including porosity effects

Rigid-body motion of the floatingObject
    Centre of rotation: (0.499999999746 0.4498800887 0)
    Orientation: (1 0 0 0 1 0 0 0 1)
    Linear velocity: (-3.48561555683e-08 -0.0182604473328 0)
    Angular velocity: (0 0 0)
GAMGPCG:  Solving for pcorr, Initial residual = 1, Final residual = 4.91986792185e-06, No Iterations 6
time step continuity errors : sum local = 4.07883318793e-12, global = -2.54576912687e-12, cumulative = 1.0171025701e-09
smoothSolver:  Solving for alpha.water, Initial residual = 5.27270064326e-08, Final residual = 9.82323618045e-15, No Iterations 1
Phase-1 volume fraction = 0.530612247469  Min(alpha.water) = 0  Max(alpha.water) = 1.00000008553
Applying the previous iteration compression flux
MULES: Correcting alpha.water
MULES: Correcting alpha.water
MULES: Correcting alpha.water
MULES: Correcting alpha.water
Phase-1 volume fraction = 0.530612247469  Min(alpha.water) = 0  Max(alpha.water) = 1.00000008508
GAMGPCG:  Solving for p_rgh, Initial residual = 1.43941455962e-06, Final residual = 1.71178411188e-09, No Iterations 3
time step continuity errors : sum local = 5.51232808202e-09, global = -7.66781841628e-11, cumulative = 9.40424385942e-10
PIMPLE: iteration 3
forces forces:
    rho: rho
    Not including porosity effects

Rigid-body motion of the floatingObject
    Centre of rotation: (0.499999999746 0.449879999741 0)
    Orientation: (1 0 0 0 1 0 0 0 1)
    Linear velocity: (-3.5509214264e-08 -0.0183411761858 0)
    Angular velocity: (0 0 0)
GAMGPCG:  Solving for pcorr, Initial residual = 1, Final residual = 4.10034718209e-06, No Iterations 6
time step continuity errors : sum local = 3.29920263606e-12, global = 1.33611984996e-12, cumulative = 9.41760505792e-10
smoothSolver:  Solving for alpha.water, Initial residual = 4.76006506306e-08, Final residual = 5.43774925193e-15, No Iterations 1
Phase-1 volume fraction = 0.530612247469  Min(alpha.water) = 0  Max(alpha.water) = 1.00000008553
Applying the previous iteration compression flux
MULES: Correcting alpha.water
MULES: Correcting alpha.water
MULES: Correcting alpha.water
MULES: Correcting alpha.water
Phase-1 volume fraction = 0.530612247469  Min(alpha.water) = 0  Max(alpha.water) = 1.00000008508
GAMGPCG:  Solving for p_rgh, Initial residual = 1.8370659194e-06, Final residual = 2.01922948673e-09, No Iterations 2
time step continuity errors : sum local = 6.4794661109e-09, global = -7.86402521149e-11, cumulative = 8.63120253677e-10
smoothSolver:  Solving for epsilon, Initial residual = 0.0050220675664, Final residual = 1.85834226257e-07, No Iterations 5
smoothSolver:  Solving for k, Initial residual = 0.158703956022, Final residual = 8.97471633528e-07, No Iterations 7
ExecutionTime = 2.9 s  ClockTime = 3 s

Courant Number mean: 0.000586673580157 max: 0.0107798898455
Interface Courant Number mean: 5.25865990937e-06 max: 0.00677021201307
deltaT = 0.00263848243634
Time = 0.0153062

PIMPLE: iteration 1
forces forces:
    rho: rho
    Not including porosity effects

Rigid-body motion of the floatingObject
    Centre of rotation: (0.499999999649 0.449826804497 0)
    Orientation: (1 0 0 0 1 0 0 0 1)
    Linear velocity: (-3.81371889354e-08 -0.0219814298354 0)
    Angular velocity: (0 0 0)
GAMGPCG:  Solving for pcorr, Initial residual = 1, Final residual = 5.91384206797e-06, No Iterations 7
time step continuity errors : sum local = 1.67688168914e-11, global = 1.44904363546e-11, cumulative = 8.77610690032e-10
smoothSolver:  Solving for alpha.water, Initial residual = 1.11702901483e-05, Final residual = 3.26015062357e-12, No Iterations 1
Phase-1 volume fraction = 0.530612247466  Min(alpha.water) = 0  Max(alpha.water) = 1.00000014926
Applying the previous iteration compression flux
MULES: Correcting alpha.water
MULES: Correcting alpha.water
MULES: Correcting alpha.water
MULES: Correcting alpha.water
Phase-1 volume fraction = 0.530612247466  Min(alpha.water) = 0  Max(alpha.water) = 1.00000014806
GAMGPCG:  Solving for p_rgh, Initial residual = 0.000357965699717, Final residual = 2.02266326783e-09, No Iterations 4
time step continuity errors : sum local = 8.81881200234e-09, global = 1.73138536949e-10, cumulative = 1.05074922698e-09
PIMPLE: iteration 2
forces forces:
    rho: rho
    Not including porosity effects

Rigid-body motion of the floatingObject
    Centre of rotation: (0.499999999648 0.449827062525 0)
    Orientation: (1 0 0 0 1 0 0 0 1)
    Linear velocity: (-3.8876504486e-08 -0.0217858417139 0)
    Angular velocity: (0 0 0)
GAMGPCG:  Solving for pcorr, Initial residual = 1, Final residual = 4.99838106638e-06, No Iterations 6
time step continuity errors : sum local = 5.98259578459e-12, global = -4.07552189551e-12, cumulative = 1.04667370508e-09
smoothSolver:  Solving for alpha.water, Initial residual = 9.525429044e-08, Final residual = 3.62694646746e-14, No Iterations 1
Phase-1 volume fraction = 0.530612247469  Min(alpha.water) = 0  Max(alpha.water) = 1.00000014927
Applying the previous iteration compression flux
MULES: Correcting alpha.water
MULES: Correcting alpha.water
MULES: Correcting alpha.water
MULES: Correcting alpha.water
Phase-1 volume fraction = 0.530612247469  Min(alpha.water) = 0  Max(alpha.water) = 1.00000014806
GAMGPCG:  Solving for p_rgh, Initial residual = 1.8631924322e-06, Final residual = 2.05557828006e-09, No Iterations 3
time step continuity errors : sum local = 8.9968872414e-09, global = -1.1958797657e-10, cumulative = 9.27085728515e-10
PIMPLE: iteration 3
forces forces:
    rho: rho
    Not including porosity effects

Rigid-body motion of the floatingObject
    Centre of rotation: (0.499999999646 0.449826913398 0)
    Orientation: (1 0 0 0 1 0 0 0 1)
    Linear velocity: (-4.00556814287e-08 -0.0218988816741 0)
    Angular velocity: (0 0 0)
GAMGPCG:  Solving for pcorr, Initial residual = 1, Final residual = 4.42438093089e-06, No Iterations 6
time step continuity errors : sum local = 5.11818885972e-12, global = 2.28320269258e-12, cumulative = 9.29368931207e-10
smoothSolver:  Solving for alpha.water, Initial residual = 8.32527637216e-08, Final residual = 1.96496779468e-14, No Iterations 1
Phase-1 volume fraction = 0.530612247469  Min(alpha.water) = 0  Max(alpha.water) = 1.00000014928
Applying the previous iteration compression flux
MULES: Correcting alpha.water
MULES: Correcting alpha.water
MULES: Correcting alpha.water
MULES: Correcting alpha.water
Phase-1 volume fraction = 0.530612247469  Min(alpha.water) = 0  Max(alpha.water) = 1.00000014808
GAMGPCG:  Solving for p_rgh, Initial residual = 2.63973167211e-06, Final residual = 2.52822035788e-09, No Iterations 2
time step continuity errors : sum local = 1.10200885004e-08, global = -1.08410563696e-10, cumulative = 8.20958367511e-10
smoothSolver:  Solving for epsilon, Initial residual = 0.00545508740879, Final residual = 4.68878579958e-07, No Iterations 5
smoothSolver:  Solving for k, Initial residual = 0.157874393075, Final residual = 5.35272202977e-07, No Iterations 8
ExecutionTime = 3.07 s  ClockTime = 3 s

Courant Number mean: 0.000839760638894 max: 0.015353301672
Interface Courant Number mean: 8.07929223699e-06 max: 0.0096200388653
deltaT = 0.0031843753542
Time = 0.0184906

PIMPLE: iteration 1
forces forces:
    rho: rho
    Not including porosity effects

Rigid-body motion of the floatingObject
    Centre of rotation: (0.499999999511 0.449750279606 0)
    Orientation: (1 0 0 0 1 0 0 0 1)
    Linear velocity: (-4.44726960342e-08 -0.0262322484877 0)
    Angular velocity: (0 0 0)
GAMGPCG:  Solving for pcorr, Initial residual = 1, Final residual = 5.84752402021e-06, No Iterations 7
time step continuity errors : sum local = 2.38292692014e-11, global = 2.05676656385e-11, cumulative = 8.4152603315e-10
smoothSolver:  Solving for alpha.water, Initial residual = 1.60924054304e-05, Final residual = 9.28927597439e-12, No Iterations 1
Phase-1 volume fraction = 0.53061224746  Min(alpha.water) = 0  Max(alpha.water) = 1.00000023149
Applying the previous iteration compression flux
MULES: Correcting alpha.water
MULES: Correcting alpha.water
MULES: Correcting alpha.water
MULES: Correcting alpha.water
Phase-1 volume fraction = 0.53061224746  Min(alpha.water) = 0  Max(alpha.water) = 1.00000022875
GAMGPCG:  Solving for p_rgh, Initial residual = 0.000415482109785, Final residual = 2.56964874112e-09, No Iterations 4
[...]
    Orientation: (1 0 0 0 1 0 0 0 1)
    Linear velocity: (0.000389886531785 0.0541418121256 0)
    Angular velocity: (0 0 0)
GAMGPCG:  Solving for pcorr, Initial residual = 1, Final residual = 4.20232988315e-06, No Iterations 6
time step continuity errors : sum local = 1.23442239621e-08, global = -4.06215689227e-09, cumulative = -1.33039841373e-07
smoothSolver:  Solving for alpha.water, Initial residual = 0.00423742737511, Final residual = 3.22767806638e-09, No Iterations 7
Phase-1 volume fraction = 0.530612230912  Min(alpha.water) = -1.537252781e-61  Max(alpha.water) = 1.00000498626
Applying the previous iteration compression flux
MULES: Correcting alpha.water
MULES: Correcting alpha.water
MULES: Correcting alpha.water
MULES: Correcting alpha.water
Phase-1 volume fraction = 0.530612230912  Min(alpha.water) = -0.0013280763149  Max(alpha.water) = 1.00000498626
GAMGPCG:  Solving for p_rgh, Initial residual = 0.00405804866582, Final residual = 9.08384812813e-10, No Iterations 5
time step continuity errors : sum local = 5.96764337382e-07, global = -6.23251141397e-08, cumulative = -1.95364955513e-07
smoothSolver:  Solving for epsilon, Initial residual = 0.358678508785, Final residual = 8.67100344978e-07, No Iterations 59
smoothSolver:  Solving for k, Initial residual = 0.341525517087, Final residual = 9.95684036125e-07, No Iterations 105
ExecutionTime = 8.82 s  ClockTime = 9 s

Courant Number mean: 0.558215828833 max: 25.5685411912
Interface Courant Number mean: 0.0803764412943 max: 16.0717961236
deltaT = 0.1
Time = 1

PIMPLE: iteration 1
forces forces:
    rho: rho
    Not including porosity effects

Rigid-body motion of the floatingObject
    Centre of rotation: (0.499930270722 0.381373155008 0)
    Orientation: (1 0 0 0 1 0 0 0 1)
    Linear velocity: (-0.00135269648484 0.0119200802752 0)
    Angular velocity: (0 0 0)
GAMGPCG:  Solving for pcorr, Initial residual = 1, Final residual = 8.07266081294e-06, No Iterations 6
time step continuity errors : sum local = 2.66216845522e-08, global = 1.23819807021e-08, cumulative = -1.8298297481e-07
smoothSolver:  Solving for alpha.water, Initial residual = 0.0053555442138, Final residual = 4.11356808197e-09, No Iterations 9
Phase-1 volume fraction = 0.530612231658  Min(alpha.water) = 0  Max(alpha.water) = 1.00000442343
Applying the previous iteration compression flux
MULES: Correcting alpha.water
MULES: Correcting alpha.water
MULES: Correcting alpha.water
MULES: Correcting alpha.water
Phase-1 volume fraction = 0.530612231658  Min(alpha.water) = -0.00211622488495  Max(alpha.water) = 1.00000442343
GAMGPCG:  Solving for p_rgh, Initial residual = 0.00383312609161, Final residual = 1.34682328159e-09, No Iterations 5
time step continuity errors : sum local = 8.58117291139e-07, global = -4.76036820228e-08, cumulative = -2.30586656833e-07
PIMPLE: iteration 2
forces forces:
    rho: rho
    Not including porosity effects

Rigid-body motion of the floatingObject
    Centre of rotation: (0.499983346513 0.384090858964 0)
    Orientation: (1 0 0 0 1 0 0 0 1)
    Linear velocity: (-0.000291180656091 0.0662741593936 0)
    Angular velocity: (0 0 0)
GAMGPCG:  Solving for pcorr, Initial residual = 1, Final residual = 3.86604888782e-06, No Iterations 6
time step continuity errors : sum local = 1.310955155e-08, global = -4.83875124342e-09, cumulative = -2.35425408077e-07
smoothSolver:  Solving for alpha.water, Initial residual = 0.004709754704, Final residual = 5.53403342318e-09, No Iterations 9
Phase-1 volume fraction = 0.530612225487  Min(alpha.water) = 0  Max(alpha.water) = 1.00000430034
Applying the previous iteration compression flux
MULES: Correcting alpha.water
MULES: Correcting alpha.water
MULES: Correcting alpha.water
MULES: Correcting alpha.water
Phase-1 volume fraction = 0.530612225487  Min(alpha.water) = -0.00162453885611  Max(alpha.water) = 1.00000430034
GAMGPCG:  Solving for p_rgh, Initial residual = 0.00318279280537, Final residual = 8.90807241793e-10, No Iterations 5
time step continuity errors : sum local = 5.85609334253e-07, global = -4.47872972334e-08, cumulative = -2.8021270531e-07
PIMPLE: iteration 3
forces forces:
    rho: rho
    Not including porosity effects

Rigid-body motion of the floatingObject
    Centre of rotation: (0.499875464498 0.381479321034 0)
    Orientation: (1 0 0 0 1 0 0 0 1)
    Linear velocity: (-0.00244882096575 0.0140434007878 0)
    Angular velocity: (0 0 0)
GAMGPCG:  Solving for pcorr, Initial residual = 1, Final residual = 5.75671193487e-06, No Iterations 6
time step continuity errors : sum local = 2.00736128008e-08, global = 9.05932123094e-09, cumulative = -2.71153384079e-07
smoothSolver:  Solving for alpha.water, Initial residual = 0.00434903655152, Final residual = 4.83911629245e-09, No Iterations 12
Phase-1 volume fraction = 0.530612226165  Min(alpha.water) = 0  Max(alpha.water) = 1.00000447212
Applying the previous iteration compression flux
MULES: Correcting alpha.water
MULES: Correcting alpha.water
MULES: Correcting alpha.water
MULES: Correcting alpha.water
Phase-1 volume fraction = 0.530612226165  Min(alpha.water) = -0.0021770399437  Max(alpha.water) = 1.00004569689
GAMGPCG:  Solving for p_rgh, Initial residual = 0.00293703444944, Final residual = 7.77020969425e-09, No Iterations 4
time step continuity errors : sum local = 4.89003615712e-06, global = 1.09185409124e-08, cumulative = -2.60234843167e-07
smoothSolver:  Solving for epsilon, Initial residual = 0.655404661656, Final residual = 7.77940260604e-07, No Iterations 47
bounding epsilon, min: -0.0668178885449 max: 1906.71014186 average: 3.45866009203
smoothSolver:  Solving for k, Initial residual = 0.450693517384, Final residual = 9.99968081388e-07, No Iterations 83
ExecutionTime = 9.26 s  ClockTime = 9 s

Courant Number mean: 0.638601580359 max: 71.8262726176
Interface Courant Number mean: 0.0973407291418 max: 16.7208699113
deltaT = 0.0666666666667
Time = 1.06667

PIMPLE: iteration 1
forces forces:
    rho: rho
    Not including porosity effects

Rigid-body motion of the floatingObject
    Centre of rotation: (0.499704263138 0.382177663202 0)
    Orientation: (1 0 0 0 1 0 0 0 1)
    Linear velocity: (-0.00268721983675 0.00690686424762 0)
    Angular velocity: (0 0 0)
GAMGPCG:  Solving for pcorr, Initial residual = 1, Final residual = 4.93139415613e-06, No Iterations 6
time step continuity errors : sum local = 6.54765943273e-09, global = 5.17168760674e-11, cumulative = -2.60183126291e-07
smoothSolver:  Solving for alpha.water, Initial residual = 0.0032565550261, Final residual = 4.26008384321e-09, No Iterations 11
Phase-1 volume fraction = 0.530612221994  Min(alpha.water) = -1.41974292567e-65  Max(alpha.water) = 1.00003480664
Applying the previous iteration compression flux
MULES: Correcting alpha.water
MULES: Correcting alpha.water
MULES: Correcting alpha.water
MULES: Correcting alpha.water
Phase-1 volume fraction = 0.530612221994  Min(alpha.water) = -0.0121491064856  Max(alpha.water) = 1.00002833123
GAMGPCG:  Solving for p_rgh, Initial residual = 0.00481391537986, Final residual = 1.34774559762e-09, No Iterations 5
time step continuity errors : sum local = 5.49536795321e-07, global = 4.64785177461e-08, cumulative = -2.13704608545e-07
PIMPLE: iteration 2
forces forces:
    rho: rho
    Not including porosity effects

Rigid-body motion of the floatingObject
    Centre of rotation: (0.499651400815 0.382814457379 0)
    Orientation: (1 0 0 0 1 0 0 0 1)
    Linear velocity: (-0.00427308952277 0.0260106895518 0)
    Angular velocity: (0 0 0)
GAMGPCG:  Solving for pcorr, Initial residual = 1, Final residual = 2.98280428679e-06, No Iterations 6
time step continuity errors : sum local = 3.62446836917e-09, global = -1.72897643595e-09, cumulative = -2.1543358498e-07
smoothSolver:  Solving for alpha.water, Initial residual = 0.00368228252154, Final residual = 6.77497132593e-09, No Iterations 9
Phase-1 volume fraction = 0.530612225714  Min(alpha.water) = -6.67395146353e-64  Max(alpha.water) = 1.00002577881
Applying the previous iteration compression flux
MULES: Correcting alpha.water
MULES: Correcting alpha.water
MULES: Correcting alpha.water
MULES: Correcting alpha.water
Phase-1 volume fraction = 0.530612225714  Min(alpha.water) = -0.00456255051533  Max(alpha.water) = 1.00002083747
GAMGPCG:  Solving for p_rgh, Initial residual = 0.00392614427577, Final residual = 1.68007666044e-09, No Iterations 5
time step continuity errors : sum local = 6.74671969674e-07, global = -4.78281689088e-08, cumulative = -2.63261753889e-07
PIMPLE: iteration 3
forces forces:
    rho: rho
    Not including porosity effects

Rigid-body motion of the floatingObject
    Centre of rotation: (0.499600743395 0.382186126065 0)
    Orientation: (1 0 0 0 1 0 0 0 1)
    Linear velocity: (-0.00579281211075 0.00716075014937 0)
    Angular velocity: (0 0 0)
GAMGPCG:  Solving for pcorr, Initial residual = 1, Final residual = 2.9990314854e-06, No Iterations 6
time step continuity errors : sum local = 3.65015149859e-09, global = -3.29961299427e-10, cumulative = -2.63591715189e-07
smoothSolver:  Solving for alpha.water, Initial residual = 0.00416708920542, Final residual = 5.13058003562e-09, No Iterations 8
Phase-1 volume fraction = 0.530612221295  Min(alpha.water) = -7.8408408358e-64  Max(alpha.water) = 1.00003413283
Applying the previous iteration compression flux
MULES: Correcting alpha.water
MULES: Correcting alpha.water
MULES: Correcting alpha.water
MULES: Correcting alpha.water
Phase-1 volume fraction = 0.530612221295  Min(alpha.water) = -0.00271508065368  Max(alpha.water) = 1.00002223414
GAMGPCG:  Solving for p_rgh, Initial residual = 0.00519160919255, Final residual = 1.53312625894e-09, No Iterations 5
time step continuity errors : sum local = 6.00598565964e-07, global = -5.80818253935e-08, cumulative = -3.21673540582e-07
smoothSolver:  Solving for epsilon, Initial residual = 0.497947476285, Final residual = 8.24838423588e-07, No Iterations 31
smoothSolver:  Solving for k, Initial residual = 0.379688748866, Final residual = 9.00923343401e-07, No Iterations 65
ExecutionTime = 9.47 s  ClockTime = 9 s

Courant Number mean: 0.528402490633 max: 45.7048551317
Interface Courant Number mean: 0.0968708161638 max: 30.658801836
deltaT = 0.0666666666667
Time = 1.13333

PIMPLE: iteration 1
forces forces:
    rho: rho
    Not including porosity effects

Rigid-body motion of the floatingObject
    Centre of rotation: (0.499190995365 0.384516738214 0)
    Orientation: (1 0 0 0 1 0 0 0 1)
    Linear velocity: (-0.00649962879408 0.0627576143104 0)
    Angular velocity: (0 0 0)
GAMGPCG:  Solving for pcorr, Initial residual = 1, Final residual = 3.87028823319e-06, No Iterations 6
time step continuity errors : sum local = 9.84188293494e-09, global = -1.89627268504e-09, cumulative = -3.23569813267e-07
smoothSolver:  Solving for alpha.water, Initial residual = 0.00522877653687, Final residual = 5.24772291794e-09, No Iterations 11
Phase-1 volume fraction = 0.530612216509  Min(alpha.water) = 0  Max(alpha.water) = 1.00001653329
Applying the previous iteration compression flux
MULES: Correcting alpha.water
MULES: Correcting alpha.water
MULES: Correcting alpha.water
MULES: Correcting alpha.water
Phase-1 volume fraction = 0.530612216509  Min(alpha.water) = -0.0066667747856  Max(alpha.water) = 1.00001653329
GAMGPCG:  Solving for p_rgh, Initial residual = 0.00373957448907, Final residual = 1.85739552486e-09, No Iterations 5
time step continuity errors : sum local = 7.84849774924e-07, global = 2.01240255536e-08, cumulative = -3.03445787714e-07
PIMPLE: iteration 2
forces forces:
    rho: rho
    Not including porosity effects

Rigid-body motion of the floatingObject
    Centre of rotation: (0.499363944148 0.382666812471 0)
    Orientation: (1 0 0 0 1 0 0 0 1)
    Linear velocity: (-0.00131116530301 0.00725984203477 0)
    Angular velocity: (0 0 0)
GAMGPCG:  Solving for pcorr, Initial residual = 1, Final residual = 4.25940537783e-06, No Iterations 6
time step continuity errors : sum local = 9.24593337812e-09, global = 2.06632283006e-10, cumulative = -3.03239155431e-07
smoothSolver:  Solving for alpha.water, Initial residual = 0.00430676373304, Final residual = 5.08740670246e-09, No Iterations 8
Phase-1 volume fraction = 0.5306122166  Min(alpha.water) = -6.90667914e-64  Max(alpha.water) = 1.00001760363
Applying the previous iteration compression flux
MULES: Correcting alpha.water
MULES: Correcting alpha.water
MULES: Correcting alpha.water
MULES: Correcting alpha.water
Phase-1 volume fraction = 0.5306122166  Min(alpha.water) = -0.00866303943007  Max(alpha.water) = 1.00001760363
GAMGPCG:  Solving for p_rgh, Initial residual = 0.00385946974685, Final residual = 5.29232980502e-09, No Iterations 4
time step continuity errors : sum local = 2.02851820814e-06, global = -1.20460885111e-07, cumulative = -4.23700040542e-07
PIMPLE: iteration 3
forces forces:
    rho: rho
    Not including porosity effects

Rigid-body motion of the floatingObject
    Centre of rotation: (0.499484092899 0.383888826614 0)
    Orientation: (1 0 0 0 1 0 0 0 1)
    Linear velocity: (0.00229329721506 0.043920266316 0)
    Angular velocity: (0 0 0)
GAMGPCG:  Solving for pcorr, Initial residual = 1, Final residual = 3.50475693901e-06, No Iterations 6
time step continuity errors : sum local = 6.12112963042e-09, global = -1.44400269071e-09, cumulative = -4.25144043232e-07
smoothSolver:  Solving for alpha.water, Initial residual = 0.00387568285907, Final residual = 3.03375392558e-09, No Iterations 8
Phase-1 volume fraction = 0.530612218327  Min(alpha.water) = -7.141806465e-64  Max(alpha.water) = 1.0000173248
Applying the previous iteration compression flux
MULES: Correcting alpha.water
MULES: Correcting alpha.water
MULES: Correcting alpha.water
MULES: Correcting alpha.water
Phase-1 volume fraction = 0.530612218327  Min(alpha.water) = -0.00247352572501  Max(alpha.water) = 1.0000173248
GAMGPCG:  Solving for p_rgh, Initial residual = 0.00306444702528, Final residual = 8.24790971531e-09, No Iterations 4
time step continuity errors : sum local = 3.32934710584e-06, global = 3.96473358877e-08, cumulative = -3.85496707345e-07
smoothSolver:  Solving for epsilon, Initial residual = 0.573235287831, Final residual = 8.27543865322e-07, No Iterations 44
bounding epsilon, min: -17.5030616605 max: 751.835126342 average: 1.30181289727
smoothSolver:  Solving for k, Initial residual = 0.362800485028, Final residual = 9.80976051743e-07, No Iterations 74
ExecutionTime = 9.69 s  ClockTime = 9 s

Courant Number mean: 0.486317507403 max: 30.7089759965
Interface Courant Number mean: 0.102475364666 max: 24.8908841116
deltaT = 0.0666666666667
Time = 1.2

PIMPLE: iteration 1
forces forces:
    rho: rho
    Not including porosity effects

Rigid-body motion of the floatingObject
    Centre of rotation: (0.500051073116 0.38710658995 0)
    Orientation: (1 0 0 0 1 0 0 0 1)
    Linear velocity: (0.0147161093136 0.0526126337615 0)
    Angular velocity: (0 0 0)
GAMGPCG:  Solving for pcorr, Initial residual = 1, Final residual = 3.5799969802e-06, No Iterations 6
time step continuity errors : sum local = 1.00438490795e-08, global = 2.10357309506e-10, cumulative = -3.85286350035e-07
smoothSolver:  Solving for alpha.water, Initial residual = 0.00414899783766, Final residual = 4.05429426484e-09, No Iterations 7
Phase-1 volume fraction = 0.530612214434  Min(alpha.water) = -5.12697753289e-59  Max(alpha.water) = 1.00001178288
Applying the previous iteration compression flux
MULES: Correcting alpha.water
MULES: Correcting alpha.water
MULES: Correcting alpha.water
MULES: Correcting alpha.water
Phase-1 volume fraction = 0.530612214434  Min(alpha.water) = -0.00426692801886  Max(alpha.water) = 1.00001178288
GAMGPCG:  Solving for p_rgh, Initial residual = 0.00386518929511, Final residual = 1.04680320861e-09, No Iterations 5
time step continuity errors : sum local = 4.29629605592e-07, global = -1.50557266587e-08, cumulative = -4.00342076694e-07
PIMPLE: iteration 2
forces forces:
    rho: rho
    Not including porosity effects

Rigid-body motion of the floatingObject
    Centre of rotation: (0.500041096835 0.387006412171 0)
    Orientation: (1 0 0 0 1 0 0 0 1)
    Linear velocity: (0.0144168208667 0.049607300396 0)
    Angular velocity: (0 0 0)
GAMGPCG:  Solving for pcorr, Initial residual = 1, Final residual = 2.72572523186e-06, No Iterations 5
time step continuity errors : sum local = 1.99564690102e-09, global = -3.19497030781e-10, cumulative = -4.00661573725e-07
smoothSolver:  Solving for alpha.water, Initial residual = 0.00345221774752, Final residual = 4.84232548683e-09, No Iterations 7
Phase-1 volume fraction = 0.530612218459  Min(alpha.water) = -5.09593274693e-59  Max(alpha.water) = 1.0000115808
Applying the previous iteration compression flux
MULES: Correcting alpha.water
MULES: Correcting alpha.water
MULES: Correcting alpha.water
MULES: Correcting alpha.water
Phase-1 volume fraction = 0.530612218459  Min(alpha.water) = -0.00451663947  Max(alpha.water) = 1.0000115808
GAMGPCG:  Solving for p_rgh, Initial residual = 3.89305982858e-05, Final residual = 1.54114179116e-09, No Iterations 4
time step continuity errors : sum local = 130.234262386, global = 3.80896101777, cumulative = 3.8089606171
PIMPLE: iteration 3
forces forces:
    rho: rho
    Not including porosity effects

Rigid-body motion of the floatingObject
    Centre of rotation: (-14270.3057288 -21055.4105587 0)
    Orientation: (1 0 0 0 1 0 0 0 1)
    Linear velocity: (-428124.158681 -631673.877345 0)
    Angular velocity: (0 0 0)
GAMGPCG:  Solving for pcorr, Initial residual = 1, Final residual = 3.99602607718e-06, No Iterations 7
time step continuity errors : sum local = -1045855.43275, global = -101313.055832, cumulative = -101309.246872
smoothSolver:  Solving for alpha.water, Initial residual = 0.993289627632, Final residual = 0.000100322564329, No Iterations 1000
Phase-1 volume fraction = 479.637299746  Min(alpha.water) = 0  Max(alpha.water) = 7.60311994547
Applying the previous iteration compression flux
MULES: Correcting alpha.water
MULES: Correcting alpha.water
MULES: Correcting alpha.water
MULES: Correcting alpha.water
Phase-1 volume fraction = 1.14593054242e+21  Min(alpha.water) = -8.67433001072e+40  Max(alpha.water) = 4.66625471798e+40
GAMGPCG:  Solving for p_rgh, Initial residual = 0.999999999832, Final residual = 0.0444792098913, No Iterations 20
time step continuity errors : sum local = -4.34832592068e+17, global = -3.85894157797e+14, cumulative = -3.85894157898e+14
smoothSolver:  Solving for epsilon, Initial residual = 1, Final residual = 9.91216255269e-07, No Iterations 681
bounding epsilon, min: -4.4843471277e+31 max: 6.38666849129e+29 average: -9.31822998871e+28
smoothSolver:  Solving for k, Initial residual = 1, Final residual = 9.90287914517e-07, No Iterations 565
bounding k, min: -9.01645053507e+29 max: 4.36879288591e+28 average: -9.30619391678e+26
ExecutionTime = 10.59 s  ClockTime = 10 s

Courant Number mean: 4.97333075685e+19 max: 1.18054757093e+19
Interface Courant Number mean: 4.78467056062e+18 max: 1.863951798e+17
deltaT = 2.8235485087e-19
Time = 1.2

PIMPLE: iteration 1
forces forces:
    rho: rho
    Not including porosity effects

Rigid-body motion of the floatingObject
    Centre of rotation: (-14270.3057288 -21055.4105587 0)
    Orientation: (1 0 0 0 1 0 0 0 1)
    Linear velocity: (-634186.799675 -702757.483409 0)
    Angular velocity: (0 0 0)
GAMGPCG:  Solving for pcorr, Initial residual = 1, Final residual = 1.19009816186, No Iterations 100
time step continuity errors : sum local = -1.51981433751, global = -0.000317561139475, cumulative = -3.85894157898e+14
smoothSolver:  Solving for alpha.water, Initial residual = 1.32113131835e-12, Final residual = 1.32113131835e-12, No Iterations 0
Phase-1 volume fraction = 1.14593054357e+21  Min(alpha.water) = -8.67433001072e+40  Max(alpha.water) = 4.66625471798e+40
Applying the previous iteration compression flux
MULES: Correcting alpha.water
MULES: Correcting alpha.water
MULES: Correcting alpha.water
